test/data/matpower/multi_nw/bus_90/pypsa-eur_multinetwork_90/mpc_008_002.m
function mpc = mpc_008_002
%MPC_008_002	Extended MATPOWER case file generated from aggregated PyPSA generator and load data
%	Period: 8 	Weight: 33
%	Time step: 2

%%	MATPOWER Case Format : Version 2
mpc.version = '2';

%% system MVA base
mpc.baseMVA = 100;

%% Weight
mpc.weight = 33;

%% bus data
%	bus_i	type	Pd	Qd	Gs	Bs	area	Vm	Va	baseKV	zone	Vmax	Vmin
mpc.bus = [
	1	2	332.932522373389	0.0	0.0	0.0	1	1.0	0.0	230.0	1	1.1	0.9;	%AL1 0
	2	2	2069.9251857547747	0.0	0.0	0.0	2	1.0	0.0	230.0	1	1.1	0.9;	%AT1 0
	3	2	611.7032364102108	0.0	0.0	0.0	3	1.0	0.0	230.0	1	1.1	0.9;	%AT1 1
	4	2	1162.2999025992776	0.0	0.0	0.0	4	1.0	0.0	230.0	1	1.1	0.9;	%AT1 2
	5	2	1706.4859551327434	0.0	0.0	0.0	5	1.0	0.0	230.0	1	1.1	0.9;	%AT1 3
	6	2	932.9886701275636	0.0	0.0	0.0	6	1.0	0.0	230.0	1	1.1	0.9;	%BA1 0
	7	2	4992.47811340769	0.0	0.0	0.0	7	1.0	0.0	230.0	1	1.1	0.9;	%BE1 0
	8	2	2260.3902458681405	0.0	0.0	0.0	8	1.0	0.0	230.0	1	1.1	0.9;	%BE1 1
	9	2	2641.846027667175	0.0	0.0	0.0	9	1.0	0.0	230.0	1	1.1	0.9;	%BG1 0
	10	2	585.2831498063562	0.0	0.0	0.0	10	1.0	0.0	230.0	1	1.1	0.9;	%CH1 0
	11	2	571.7377434621417	0.0	0.0	0.0	11	1.0	0.0	230.0	1	1.1	0.9;	%CH1 1
	12	2	1042.3902067336414	0.0	0.0	0.0	12	1.0	0.0	230.0	1	1.1	0.9;	%CH1 2
	13	2	1352.391353500857	0.0	0.0	0.0	13	1.0	0.0	230.0	1	1.1	0.9;	%CH1 3
	14	2	965.7043637708445	0.0	0.0	0.0	14	1.0	0.0	230.0	1	1.1	0.9;	%CZ1 0
	15	2	2506.477949558208	0.0	0.0	0.0	15	1.0	0.0	230.0	1	1.1	0.9;	%CZ1 1
	16	2	1637.8056334432983	0.0	0.0	0.0	16	1.0	0.0	230.0	1	1.1	0.9;	%CZ1 2
	17	2	1945.3702227998892	0.0	0.0	0.0	17	1.0	0.0	230.0	1	1.1	0.9;	%DE1 0
	18	2	1476.527876498341	0.0	0.0	0.0	18	1.0	0.0	230.0	1	1.1	0.9;	%DE1 1
	19	2	566.3218034311665	0.0	0.0	0.0	19	1.0	0.0	230.0	1	1.1	0.9;	%DE1 10
	20	2	376.819228344302	0.0	0.0	0.0	20	1.0	0.0	230.0	1	1.1	0.9;	%DE1 11
	21	2	1939.8859272887673	0.0	0.0	0.0	21	1.0	0.0	230.0	1	1.1	0.9;	%DE1 12
	22	2	1517.2924907776355	0.0	0.0	0.0	22	1.0	0.0	230.0	1	1.1	0.9;	%DE1 13
	23	2	290.41766918648443	0.0	0.0	0.0	23	1.0	0.0	230.0	1	1.1	0.9;	%DE1 14
	24	2	1718.7302562312977	0.0	0.0	0.0	24	1.0	0.0	230.0	1	1.1	0.9;	%DE1 15
	25	2	750.7261026283685	0.0	0.0	0.0	25	1.0	0.0	230.0	1	1.1	0.9;	%DE1 16
	26	2	1146.2943802419568	0.0	0.0	0.0	26	1.0	0.0	230.0	1	1.1	0.9;	%DE1 17
	27	2	904.5330806660163	0.0	0.0	0.0	27	1.0	0.0	230.0	1	1.1	0.9;	%DE1 18
	28	2	1373.7407912314102	0.0	0.0	0.0	28	1.0	0.0	230.0	1	1.1	0.9;	%DE1 19
	29	2	1399.86662730147	0.0	0.0	0.0	29	1.0	0.0	230.0	1	1.1	0.9;	%DE1 2
	30	2	1804.823535194954	0.0	0.0	0.0	30	1.0	0.0	230.0	1	1.1	0.9;	%DE1 20
	31	2	1034.5305911303453	0.0	0.0	0.0	31	1.0	0.0	230.0	1	1.1	0.9;	%DE1 21
	32	2	1106.6140725815342	0.0	0.0	0.0	32	1.0	0.0	230.0	1	1.1	0.9;	%DE1 22
	33	2	1761.066234580508	0.0	0.0	0.0	33	1.0	0.0	230.0	1	1.1	0.9;	%DE1 23
	34	2	273.2820688523143	0.0	0.0	0.0	34	1.0	0.0	230.0	1	1.1	0.9;	%DE1 24
	35	2	879.6741188484085	0.0	0.0	0.0	35	1.0	0.0	230.0	1	1.1	0.9;	%DE1 25
	36	2	1123.2181497627214	0.0	0.0	0.0	36	1.0	0.0	230.0	1	1.1	0.9;	%DE1 26
	37	2	753.6991331372338	0.0	0.0	0.0	37	1.0	0.0	230.0	1	1.1	0.9;	%DE1 27
	38	2	1853.6725367254471	0.0	0.0	0.0	38	1.0	0.0	230.0	1	1.1	0.9;	%DE1 28
	39	2	1151.0413411670531	0.0	0.0	0.0	39	1.0	0.0	230.0	1	1.1	0.9;	%DE1 29
	40	2	1084.053629535527	0.0	0.0	0.0	40	1.0	0.0	230.0	1	1.1	0.9;	%DE1 3
	41	2	501.8587349056156	0.0	0.0	0.0	41	1.0	0.0	230.0	1	1.1	0.9;	%DE1 30
	42	2	446.8115576414957	0.0	0.0	0.0	42	1.0	0.0	230.0	1	1.1	0.9;	%DE1 31
	43	2	567.448190521209	0.0	0.0	0.0	43	1.0	0.0	230.0	1	1.1	0.9;	%DE1 32
	44	2	1027.3861415661906	0.0	0.0	0.0	44	1.0	0.0	230.0	1	1.1	0.9;	%DE1 33
	45	2	522.4781037896068	0.0	0.0	0.0	45	1.0	0.0	230.0	1	1.1	0.9;	%DE1 34
	46	2	752.2155620102686	0.0	0.0	0.0	46	1.0	0.0	230.0	1	1.1	0.9;	%DE1 4
	47	2	1352.1483362266815	0.0	0.0	0.0	47	1.0	0.0	230.0	1	1.1	0.9;	%DE1 5
	48	2	1485.6005919381569	0.0	0.0	0.0	48	1.0	0.0	230.0	1	1.1	0.9;	%DE1 6
	49	2	1042.5855312141869	0.0	0.0	0.0	49	1.0	0.0	230.0	1	1.1	0.9;	%DE1 7
	50	2	2484.704101520341	0.0	0.0	0.0	50	1.0	0.0	230.0	1	1.1	0.9;	%DE1 8
	51	2	937.1167422752445	0.0	0.0	0.0	51	1.0	0.0	230.0	1	1.1	0.9;	%DE1 9
	52	2	616.8774130026158	0.0	0.0	0.0	52	1.0	0.0	230.0	1	1.1	0.9;	%DK1 0
	53	2	471.1225869973842	0.0	0.0	0.0	53	1.0	0.0	230.0	1	1.1	0.9;	%DK2 0
	54	2	551.8512991984683	0.0	0.0	0.0	54	1.0	0.0	230.0	1	1.1	0.9;	%EE6 0
	55	2	19681.022888013136	0.0	0.0	0.0	55	1.0	0.0	230.0	1	1.1	0.9;	%ES1 0
	56	2	425.39638814660714	0.0	0.0	0.0	56	1.0	0.0	230.0	1	1.1	0.9;	%ES4 0
	57	2	6911.391652841445	0.0	0.0	0.0	57	1.0	0.0	230.0	1	1.1	0.9;	%FI2 0
	58	2	7790.070154184523	0.0	0.0	0.0	58	1.0	0.0	230.0	1	1.1	0.9;	%FR1 0
	59	2	11469.526121019146	0.0	0.0	0.0	59	1.0	0.0	230.0	1	1.1	0.9;	%FR1 1
	60	2	6792.728724865613	0.0	0.0	0.0	60	1.0	0.0	230.0	1	1.1	0.9;	%FR1 2
	61	2	5844.383282188413	0.0	0.0	0.0	61	1.0	0.0	230.0	1	1.1	0.9;	%FR1 3
	62	2	4667.801006222854	0.0	0.0	0.0	62	1.0	0.0	230.0	1	1.1	0.9;	%FR1 4
	63	2	12815.232502763727	0.0	0.0	0.0	63	1.0	0.0	230.0	1	1.1	0.9;	%GB0 0
	64	2	11126.124412845504	0.0	0.0	0.0	64	1.0	0.0	230.0	1	1.1	0.9;	%GB0 1
	65	2	589.5768067970083	0.0	0.0	0.0	65	1.0	0.0	230.0	1	1.1	0.9;	%GB5 0
	66	2	4102.042054212962	0.0	0.0	0.0	66	1.0	0.0	230.0	1	1.1	0.9;	%GR1 0
	67	2	1292.5118016155504	0.0	0.0	0.0	67	1.0	0.0	230.0	1	1.1	0.9;	%HR1 0
	68	2	3194.9492619834996	0.0	0.0	0.0	68	1.0	0.0	230.0	1	1.1	0.9;	%HU1 0
	69	2	1917.6481557435977	0.0	0.0	0.0	69	1.0	0.0	230.0	1	1.1	0.9;	%IE5 0
	70	2	25700.1184405499	0.0	0.0	0.0	70	1.0	0.0	230.0	1	1.1	0.9;	%IT1 0
	71	2	1335.6178268017336	0.0	0.0	0.0	71	1.0	0.0	230.0	1	1.1	0.9;	%IT3 0
	72	2	837.4809595215379	0.0	0.0	0.0	72	1.0	0.0	230.0	1	1.1	0.9;	%LT6 0
	73	2	577.8670972745301	0.0	0.0	0.0	73	1.0	0.0	230.0	1	1.1	0.9;	%LU1 0
	74	2	550.8959875251454	0.0	0.0	0.0	74	1.0	0.0	230.0	1	1.1	0.9;	%LV6 0
	75	2	248.47487044368904	0.0	0.0	0.0	75	1.0	0.0	230.0	1	1.1	0.9;	%ME1 0
	76	2	600.9026013568487	0.0	0.0	0.0	76	1.0	0.0	230.0	1	1.1	0.9;	%MK1 0
	77	2	2928.4013067431447	0.0	0.0	0.0	77	1.0	0.0	230.0	1	1.1	0.9;	%NL1 0
	78	2	4010.3702397290713	0.0	0.0	0.0	78	1.0	0.0	230.0	1	1.1	0.9;	%NL1 1
	79	2	1318.228453527785	0.0	0.0	0.0	79	1.0	0.0	230.0	1	1.1	0.9;	%NL1 2
	80	2	9799.41502570582	0.0	0.0	0.0	80	1.0	0.0	230.0	1	1.1	0.9;	%NO2 0
	81	2	3352.1783539486014	0.0	0.0	0.0	81	1.0	0.0	230.0	1	1.1	0.9;	%PL1 0
	82	2	1974.5451274034542	0.0	0.0	0.0	82	1.0	0.0	230.0	1	1.1	0.9;	%PL1 1
	83	2	2712.9161678748505	0.0	0.0	0.0	83	1.0	0.0	230.0	1	1.1	0.9;	%PL1 2
	84	2	3026.9412860687535	0.0	0.0	0.0	84	1.0	0.0	230.0	1	1.1	0.9;	%PL1 3
	85	2	4218.919206966804	0.0	0.0	0.0	85	1.0	0.0	230.0	1	1.1	0.9;	%PT1 0
	86	2	4179.8767794995265	0.0	0.0	0.0	86	1.0	0.0	230.0	1	1.1	0.9;	%RO1 0
	87	2	2660.0424245847103	0.0	0.0	0.0	87	1.0	0.0	230.0	1	1.1	0.9;	%RS1 0
	88	2	10352.219485797159	0.0	0.0	0.0	88	1.0	0.0	230.0	1	1.1	0.9;	%SE2 0
	89	2	1097.2475413249324	0.0	0.0	0.0	89	1.0	0.0	230.0	1	1.1	0.9;	%SI1 0
	90	2	2494.4362672423335	0.0	0.0	0.0	90	1.0	0.0	230.0	1	1.1	0.9;	%SK1 0
];

%% generator data
%	bus	Pg	Qg	Qmax	Qmin	Vg	mBase	status	Pmax	Pmin	H	n0	nE	nE_max	P_b_nom	carrier
mpc.gen = [
	1	0.0	0.0	0.0	-0.0	1.0	100.0	1	224.0	78.4	5.0	0	0	5	224.0	0;	%AL1 0 CCGT
	1	0.0	0.0	0.0	-0.0	1.0	100.0	1	224.0	78.4	2.8	0	0	5	224.0	1;	%AL1 0 OCGT
	1	0.0	0.0	0.0	-0.0	1.0	100.0	1	1.09011533310039	0.0	0.0	0	0	55	17.0	2;	%AL1 0 offwind
	1	0.0	0.0	0.0	-0.0	1.0	100.0	1	44.92727152904733	0.0	2.8	2	2	2	50.0	3;	%AL1 0 oil
	1	0.0	0.0	0.0	-0.0	1.0	100.0	1	0.3606601625499551	0.0	0.0	0	0	25	38.0	4;	%AL1 0 onwind
	1	0.0	0.0	0.0	-0.0	1.0	100.0	1	6.103884820332743	0.0	3.5	2	2	2	26.0	5;	%AL1 0 ror
	1	0.0	0.0	0.0	-0.0	1.0	100.0	1	0.0	0.0	0.0	1	1	34	28.0	6;	%AL1 0 solar
	2	0.0	0.0	0.0	-0.0	1.0	100.0	1	214.74117647058824	78.4	5.0	17	17	67	224.0	0;	%AT1 0 CCGT
	2	0.0	0.0	0.0	-0.0	1.0	100.0	1	224.0	78.4	2.8	0	0	67	224.0	1;	%AT1 0 OCGT
	2	0.0	0.0	0.0	-0.0	1.0	100.0	1	11.631302068512044	0.0	0.0	49	49	390	38.0	4;	%AT1 0 onwind
	2	0.0	0.0	0.0	-0.0	1.0	100.0	1	25.684414689722246	0.0	3.5	44	44	44	26.0	5;	%AT1 0 ror
	2	0.0	0.0	0.0	-0.0	1.0	100.0	1	0.0	0.0	0.0	28	28	529	28.0	6;	%AT1 0 solar
	3	0.0	0.0	0.0	-0.0	1.0	100.0	1	224.0	78.4	5.0	0	0	7	224.0	0;	%AT1 1 CCGT
	3	0.0	0.0	0.0	-0.0	1.0	100.0	1	224.0	78.4	2.8	0	0	7	224.0	1;	%AT1 1 OCGT
	3	0.0	0.0	0.0	-0.0	1.0	100.0	1	0.0	0.0	0.0	2	2	37	38.0	4;	%AT1 1 onwind
	3	0.0	0.0	0.0	-0.0	1.0	100.0	1	24.11354881587689	0.0	3.5	9	9	9	26.0	5;	%AT1 1 ror
	3	0.0	0.0	0.0	-0.0	1.0	100.0	1	0.0	0.0	0.0	10	10	50	28.0	6;	%AT1 1 solar
	4	0.0	0.0	0.0	-0.0	1.0	100.0	1	83.7	78.4	5.0	1	1	18	224.0	0;	%AT1 2 CCGT
	4	0.0	0.0	0.0	-0.0	1.0	100.0	1	224.0	78.4	2.8	0	0	18	224.0	1;	%AT1 2 OCGT
	4	0.0	0.0	0.0	-0.0	1.0	100.0	1	7.412939743417605	0.0	0.0	9	9	102	38.0	4;	%AT1 2 onwind
	4	0.0	0.0	0.0	-0.0	1.0	100.0	1	25.649961445983827	0.0	3.5	38	38	38	26.0	5;	%AT1 2 ror
	4	0.0	0.0	0.0	-0.0	1.0	100.0	1	0.0	0.0	0.0	20	20	138	28.0	6;	%AT1 2 solar
	5	0.0	0.0	0.0	-0.0	1.0	100.0	1	206.33333333333334	78.4	5.0	3	3	43	224.0	0;	%AT1 3 CCGT
	5	0.0	0.0	0.0	-0.0	1.0	100.0	1	224.0	78.4	2.8	0	0	43	224.0	1;	%AT1 3 OCGT
	5	0.0	0.0	0.0	-0.0	1.0	100.0	1	2.892498015319195	0.0	0.0	28	28	249	38.0	4;	%AT1 3 onwind
	5	0.0	0.0	0.0	-0.0	1.0	100.0	1	25.980285992813418	0.0	3.5	94	94	94	26.0	5;	%AT1 3 ror
	5	0.0	0.0	0.0	-0.0	1.0	100.0	1	0.0	0.0	0.0	23	23	338	28.0	6;	%AT1 3 solar
	6	0.0	0.0	0.0	-0.0	1.0	100.0	1	224.0	78.4	5.0	0	0	11	224.0	0;	%BA1 0 CCGT
	6	0.0	0.0	0.0	-0.0	1.0	100.0	1	224.0	78.4	2.8	0	0	11	224.0	1;	%BA1 0 OCGT
	6	0.0	0.0	0.0	-0.0	1.0	100.0	1	209.5	110.0	3.0	4	4	4	275.0	7;	%BA1 0 lignite
	6	0.0	0.0	0.0	-0.0	1.0	100.0	1	0.13911708235660789	0.0	0.0	3	3	61	38.0	4;	%BA1 0 onwind
	6	0.0	0.0	0.0	-0.0	1.0	100.0	1	0.0	0.0	0.0	2	2	82	28.0	6;	%BA1 0 solar
	7	0.0	0.0	0.0	-0.0	1.0	100.0	1	218.17368421052632	78.4	5.0	19	19	100	224.0	0;	%BE1 0 CCGT
	7	0.0	0.0	0.0	-0.0	1.0	100.0	1	224.0	78.4	2.8	0	0	100	224.0	1;	%BE1 0 OCGT
	7	0.0	0.0	0.0	-0.0	1.0	100.0	1	9.925925925925926	2.0436	2.8	27	27	27	10.0	8;	%BE1 0 biomass
	7	0.0	0.0	0.0	-0.0	1.0	100.0	1	29.843004372124064	0.0	0.0	137	137	1308	17.0	2;	%BE1 0 offwind
	7	0.0	0.0	0.0	-0.0	1.0	100.0	1	15.36890680542522	0.0	0.0	28	28	585	38.0	4;	%BE1 0 onwind
	7	0.0	0.0	0.0	-0.0	1.0	100.0	1	0.0	0.0	0.0	120	120	794	28.0	6;	%BE1 0 solar
	8	0.0	0.0	0.0	-0.0	1.0	100.0	1	155.0	78.4	5.0	3	3	38	224.0	0;	%BE1 1 CCGT
	8	0.0	0.0	0.0	-0.0	1.0	100.0	1	224.0	78.4	2.8	0	0	38	224.0	1;	%BE1 1 OCGT
	8	0.0	0.0	0.0	-0.0	1.0	100.0	1	14.383301095087257	0.0	0.0	38	38	224	38.0	4;	%BE1 1 onwind
	8	0.0	0.0	0.0	-0.0	1.0	100.0	1	8.309318819141776	0.0	3.5	4	4	4	26.0	5;	%BE1 1 ror
	8	0.0	0.0	0.0	-0.0	1.0	100.0	1	0.0	0.0	0.0	82	82	304	28.0	6;	%BE1 1 solar
	9	0.0	0.0	0.0	-0.0	1.0	100.0	1	224.0	78.4	5.0	0	0	50	224.0	0;	%BG1 0 CCGT
	9	0.0	0.0	0.0	-0.0	1.0	100.0	1	224.0	78.4	2.8	0	0	50	224.0	1;	%BG1 0 OCGT
	9	0.0	0.0	0.0	-0.0	1.0	100.0	1	160.41703044199232	89.375	3.0	1	1	1	275.0	9;	%BG1 0 coal
	9	0.0	0.0	0.0	-0.0	1.0	100.0	1	242.52278758367152	110.0	3.0	6	6	6	275.0	7;	%BG1 0 lignite
	9	0.0	0.0	0.0	-0.0	1.0	100.0	1	693.3333333333334	500.0	5.5	3	3	3	1000.0	10;	%BG1 0 nuclear
	9	0.0	0.0	0.0	-0.0	1.0	100.0	1	8.420238961871883	0.0	0.0	0	0	657	17.0	2;	%BG1 0 offwind
	9	0.0	0.0	0.0	-0.0	1.0	100.0	1	1.9165075951645172	0.0	0.0	19	19	294	38.0	4;	%BG1 0 onwind
	9	0.0	0.0	0.0	-0.0	1.0	100.0	1	5.825137838283086	0.0	3.5	5	5	5	26.0	5;	%BG1 0 ror
	9	0.0	0.0	0.0	-0.0	1.0	100.0	1	0.0	0.0	0.0	39	39	399	28.0	6;	%BG1 0 solar
	10	0.0	0.0	0.0	-0.0	1.0	100.0	1	224.0	78.4	5.0	0	0	12	224.0	0;	%CH1 0 CCGT
	10	0.0	0.0	0.0	-0.0	1.0	100.0	1	224.0	78.4	2.8	0	0	12	224.0	1;	%CH1 0 OCGT
	10	0.0	0.0	0.0	-0.0	1.0	100.0	1	8.795428571428571	2.0436	2.8	7	7	7	10.0	8;	%CH1 0 biomass
	10	0.0	0.0	0.0	-0.0	1.0	100.0	1	0.0	0.0	0.0	1	1	70	38.0	4;	%CH1 0 onwind
	10	0.0	0.0	0.0	-0.0	1.0	100.0	1	21.102869804803536	0.0	3.5	24	24	24	26.0	5;	%CH1 0 ror
	10	0.0	0.0	0.0	-0.0	1.0	100.0	1	0.0	0.0	0.0	23	23	94	28.0	6;	%CH1 0 solar
	11	0.0	0.0	0.0	-0.0	1.0	100.0	1	224.0	78.4	5.0	0	0	23	224.0	0;	%CH1 1 CCGT
	11	0.0	0.0	0.0	-0.0	1.0	100.0	1	224.0	78.4	2.8	0	0	23	224.0	1;	%CH1 1 OCGT
	11	0.0	0.0	0.0	-0.0	1.0	100.0	1	9.692485714285713	2.0436	2.8	7	7	7	10.0	8;	%CH1 1 biomass
	11	0.0	0.0	0.0	-0.0	1.0	100.0	1	0.027597626647645354	0.0	0.0	1	1	132	38.0	4;	%CH1 1 onwind
	11	0.0	0.0	0.0	-0.0	1.0	100.0	1	22.1361638700737	0.0	3.5	66	66	66	26.0	5;	%CH1 1 ror
	11	0.0	0.0	0.0	-0.0	1.0	100.0	1	0.0	0.0	0.0	25	25	179	28.0	6;	%CH1 1 solar
	12	0.0	0.0	0.0	-0.0	1.0	100.0	1	224.0	78.4	5.0	0	0	45	224.0	0;	%CH1 2 CCGT
	12	0.0	0.0	0.0	-0.0	1.0	100.0	1	224.0	78.4	2.8	0	0	45	224.0	1;	%CH1 2 OCGT
	12	0.0	0.0	0.0	-0.0	1.0	100.0	1	9.847608333333332	2.0436	2.8	12	12	12	10.0	8;	%CH1 2 biomass
	12	0.0	0.0	0.0	-0.0	1.0	100.0	1	990.0	500.0	5.5	3	3	3	1000.0	10;	%CH1 2 nuclear
	12	0.0	0.0	0.0	-0.0	1.0	100.0	1	0.0	0.0	0.0	1	1	264	38.0	4;	%CH1 2 onwind
	12	0.0	0.0	0.0	-0.0	1.0	100.0	1	21.83797259277456	0.0	3.5	50	50	50	26.0	5;	%CH1 2 ror
	12	0.0	0.0	0.0	-0.0	1.0	100.0	1	0.0	0.0	0.0	22	22	358	28.0	6;	%CH1 2 solar
	13	0.0	0.0	0.0	-0.0	1.0	100.0	1	224.0	78.4	5.0	0	0	18	224.0	0;	%CH1 3 CCGT
	13	0.0	0.0	0.0	-0.0	1.0	100.0	1	224.0	78.4	2.8	0	0	18	224.0	1;	%CH1 3 OCGT
	13	0.0	0.0	0.0	-0.0	1.0	100.0	1	9.7455	2.0436	2.8	9	9	9	10.0	8;	%CH1 3 biomass
	13	0.0	0.0	0.0	-0.0	1.0	100.0	1	0.08862016683687113	0.0	0.0	1	1	104	38.0	4;	%CH1 3 onwind
	13	0.0	0.0	0.0	-0.0	1.0	100.0	1	21.609574658057042	0.0	3.5	32	32	32	26.0	5;	%CH1 3 ror
	13	0.0	0.0	0.0	-0.0	1.0	100.0	1	0.0	0.0	0.0	37	37	141	28.0	6;	%CH1 3 solar
	14	0.0	0.0	0.0	-0.0	1.0	100.0	1	78.4	78.4	5.0	1	1	10	224.0	0;	%CZ1 0 CCGT
	14	0.0	0.0	0.0	-0.0	1.0	100.0	1	224.0	78.4	2.8	0	0	10	224.0	1;	%CZ1 0 OCGT
	14	0.0	0.0	0.0	-0.0	1.0	100.0	1	1.187622218095168	0.0	0.0	2	2	55	38.0	4;	%CZ1 0 onwind
	14	0.0	0.0	0.0	-0.0	1.0	100.0	1	0.0	0.0	0.0	12	12	75	28.0	6;	%CZ1 0 solar
	15	0.0	0.0	0.0	-0.0	1.0	100.0	1	185.6	78.4	5.0	5	5	62	224.0	0;	%CZ1 1 CCGT
	15	0.0	0.0	0.0	-0.0	1.0	100.0	1	224.0	78.4	2.8	0	0	62	224.0	1;	%CZ1 1 OCGT
	15	0.0	0.0	0.0	-0.0	1.0	100.0	1	262.44100892134185	110.0	3.0	10	10	10	275.0	7;	%CZ1 1 lignite
	15	0.0	0.0	0.0	-0.0	1.0	100.0	1	750.0	500.0	5.5	3	3	3	1000.0	10;	%CZ1 1 nuclear
	15	0.0	0.0	0.0	-0.0	1.0	100.0	1	5.489438171498048	0.0	0.0	5	5	365	38.0	4;	%CZ1 1 onwind
	15	0.0	0.0	0.0	-0.0	1.0	100.0	1	16.339165493211485	0.0	3.5	2	2	2	26.0	5;	%CZ1 1 ror
	15	0.0	0.0	0.0	-0.0	1.0	100.0	1	0.0	0.0	0.0	33	33	495	28.0	6;	%CZ1 1 solar
	16	0.0	0.0	0.0	-0.0	1.0	100.0	1	224.0	78.4	5.0	0	0	36	224.0	0;	%CZ1 2 CCGT
	16	0.0	0.0	0.0	-0.0	1.0	100.0	1	224.0	78.4	2.8	0	0	36	224.0	1;	%CZ1 2 OCGT
	16	0.0	0.0	0.0	-0.0	1.0	100.0	1	251.74418635111147	110.0	3.0	4	4	4	275.0	7;	%CZ1 2 lignite
	16	0.0	0.0	0.0	-0.0	1.0	100.0	1	680.0	500.0	5.5	3	3	3	1000.0	10;	%CZ1 2 nuclear
	16	0.0	0.0	0.0	-0.0	1.0	100.0	1	4.13365629578035	0.0	0.0	4	4	212	38.0	4;	%CZ1 2 onwind
	16	0.0	0.0	0.0	-0.0	1.0	100.0	1	0.0	0.0	0.0	30	30	287	28.0	6;	%CZ1 2 solar
	17	0.0	0.0	0.0	-0.0	1.0	100.0	1	213.15152631578948	78.4	5.0	19	19	157	224.0	0;	%DE1 0 CCGT
	17	0.0	0.0	0.0	-0.0	1.0	100.0	1	224.0	78.4	2.8	0	0	157	224.0	1;	%DE1 0 OCGT
	17	0.0	0.0	0.0	-0.0	1.0	100.0	1	9.355047777777777	2.0436	2.8	9	9	9	10.0	8;	%DE1 0 biomass
	17	0.0	0.0	0.0	-0.0	1.0	100.0	1	269.05434856878185	110.0	3.0	42	42	42	275.0	7;	%DE1 0 lignite
	17	0.0	0.0	0.0	-0.0	1.0	100.0	1	48.55	0.0	2.8	2	2	2	50.0	3;	%DE1 0 oil
	17	0.0	0.0	0.0	-0.0	1.0	100.0	1	10.614197630230795	0.0	0.0	18	18	922	38.0	4;	%DE1 0 onwind
	17	0.0	0.0	0.0	-0.0	1.0	100.0	1	15.514163416056807	0.0	3.5	1	1	1	26.0	5;	%DE1 0 ror
	17	0.0	0.0	0.0	-0.0	1.0	100.0	1	0.0	0.0	0.0	46	46	1251	28.0	6;	%DE1 0 solar
	18	0.0	0.0	0.0	-0.0	1.0	100.0	1	128.3	78.4	5.0	2	2	33	224.0	0;	%DE1 1 CCGT
	18	0.0	0.0	0.0	-0.0	1.0	100.0	1	224.0	78.4	2.8	0	0	33	224.0	1;	%DE1 1 OCGT
	18	0.0	0.0	0.0	-0.0	1.0	100.0	1	9.9771036	2.0436	2.8	25	25	25	10.0	8;	%DE1 1 biomass
	18	0.0	0.0	0.0	-0.0	1.0	100.0	1	6.163056915152434	0.0	0.0	41	41	190	38.0	4;	%DE1 1 onwind
	18	0.0	0.0	0.0	-0.0	1.0	100.0	1	16.39392268286588	0.0	3.5	2	2	2	26.0	5;	%DE1 1 ror
	18	0.0	0.0	0.0	-0.0	1.0	100.0	1	0.0	0.0	0.0	55	55	258	28.0	6;	%DE1 1 solar
	19	0.0	0.0	0.0	-0.0	1.0	100.0	1	211.56666666666666	78.4	5.0	9	9	111	224.0	0;	%DE1 10 CCGT
	19	0.0	0.0	0.0	-0.0	1.0	100.0	1	224.0	78.4	2.8	0	0	111	224.0	1;	%DE1 10 OCGT
	19	0.0	0.0	0.0	-0.0	1.0	100.0	1	9.826045714285716	2.0436	2.8	35	35	35	10.0	8;	%DE1 10 biomass
	19	0.0	0.0	0.0	-0.0	1.0	100.0	1	30.052511827296158	0.0	0.0	370	370	1459	17.0	2;	%DE1 10 offwind
	19	0.0	0.0	0.0	-0.0	1.0	100.0	1	11.085839123565723	0.0	0.0	60	60	653	38.0	4;	%DE1 10 onwind
	19	0.0	0.0	0.0	-0.0	1.0	100.0	1	0.0	0.0	0.0	58	58	886	28.0	6;	%DE1 10 solar
	20	0.0	0.0	0.0	-0.0	1.0	100.0	1	197.88333333333333	78.4	5.0	6	6	24	224.0	0;	%DE1 11 CCGT
	20	0.0	0.0	0.0	-0.0	1.0	100.0	1	224.0	78.4	2.8	0	0	24	224.0	1;	%DE1 11 OCGT
	20	0.0	0.0	0.0	-0.0	1.0	100.0	1	9.57325	2.0436	2.8	4	4	4	10.0	8;	%DE1 11 biomass
	20	0.0	0.0	0.0	-0.0	1.0	100.0	1	6.030405729465993	0.0	0.0	19	19	137	38.0	4;	%DE1 11 onwind
	20	0.0	0.0	0.0	-0.0	1.0	100.0	1	2.374025006427669	0.0	3.5	1	1	1	26.0	5;	%DE1 11 ror
	20	0.0	0.0	0.0	-0.0	1.0	100.0	1	0.0	0.0	0.0	24	24	186	28.0	6;	%DE1 11 solar
	21	0.0	0.0	0.0	-0.0	1.0	100.0	1	212.84425	78.4	5.0	2	2	45	224.0	0;	%DE1 12 CCGT
	21	0.0	0.0	0.0	-0.0	1.0	100.0	1	78.4	78.4	2.8	1	1	45	224.0	1;	%DE1 12 OCGT
	21	0.0	0.0	0.0	-0.0	1.0	100.0	1	9.737791304347825	2.0436	2.8	23	23	23	10.0	8;	%DE1 12 biomass
	21	0.0	0.0	0.0	-0.0	1.0	100.0	1	253.00584193683684	89.375	3.0	7	7	7	275.0	9;	%DE1 12 coal
	21	0.0	0.0	0.0	-0.0	1.0	100.0	1	3.750803267958448	0.0	0.0	24	24	261	38.0	4;	%DE1 12 onwind
	21	0.0	0.0	0.0	-0.0	1.0	100.0	1	12.99516688259383	0.0	3.5	1	1	1	26.0	5;	%DE1 12 ror
	21	0.0	0.0	0.0	-0.0	1.0	100.0	1	0.0	0.0	0.0	58	58	354	28.0	6;	%DE1 12 solar
	22	0.0	0.0	0.0	-0.0	1.0	100.0	1	204.07599999999996	78.4	5.0	5	5	81	224.0	0;	%DE1 13 CCGT
	22	0.0	0.0	0.0	-0.0	1.0	100.0	1	224.0	78.4	2.8	0	0	81	224.0	1;	%DE1 13 OCGT
	22	0.0	0.0	0.0	-0.0	1.0	100.0	1	9.839105918367348	2.0436	2.8	49	49	49	10.0	8;	%DE1 13 biomass
	22	0.0	0.0	0.0	-0.0	1.0	100.0	1	244.3132934892412	89.375	3.0	3	3	3	275.0	9;	%DE1 13 coal
	22	0.0	0.0	0.0	-0.0	1.0	100.0	1	13.01405305204336	0.0	0.0	6	6	1064	17.0	2;	%DE1 13 offwind
	22	0.0	0.0	0.0	-0.0	1.0	100.0	1	13.669963877026465	0.0	0.0	100	100	476	38.0	4;	%DE1 13 onwind
	22	0.0	0.0	0.0	-0.0	1.0	100.0	1	9.900104281227435	0.0	3.5	1	1	1	26.0	5;	%DE1 13 ror
	22	0.0	0.0	0.0	-0.0	1.0	100.0	1	0.0	0.0	0.0	104	104	646	28.0	6;	%DE1 13 solar
	23	0.0	0.0	0.0	-0.0	1.0	100.0	1	224.0	78.4	5.0	0	0	14	224.0	0;	%DE1 14 CCGT
	23	0.0	0.0	0.0	-0.0	1.0	100.0	1	224.0	78.4	2.8	0	0	14	224.0	1;	%DE1 14 OCGT
	23	0.0	0.0	0.0	-0.0	1.0	100.0	1	8.88375	2.0436	2.8	5	5	5	10.0	8;	%DE1 14 biomass
	23	0.0	0.0	0.0	-0.0	1.0	100.0	1	11.444702580671002	0.0	0.0	25	25	80	38.0	4;	%DE1 14 onwind
	23	0.0	0.0	0.0	-0.0	1.0	100.0	1	2.1500226469332304	0.0	3.5	1	1	1	26.0	5;	%DE1 14 ror
	23	0.0	0.0	0.0	-0.0	1.0	100.0	1	0.0	0.0	0.0	20	20	109	28.0	6;	%DE1 14 solar
	24	0.0	0.0	0.0	-0.0	1.0	100.0	1	208.4628571428571	78.4	5.0	7	7	53	224.0	0;	%DE1 15 CCGT
	24	0.0	0.0	0.0	-0.0	1.0	100.0	1	224.0	78.4	2.8	0	0	53	224.0	1;	%DE1 15 OCGT
	24	0.0	0.0	0.0	-0.0	1.0	100.0	1	9.874929523809524	2.0436	2.8	21	21	21	10.0	8;	%DE1 15 biomass
	24	0.0	0.0	0.0	-0.0	1.0	100.0	1	251.99610146060095	89.375	3.0	3	3	3	275.0	9;	%DE1 15 coal
	24	0.0	0.0	0.0	-0.0	1.0	100.0	1	10.41999666421565	0.0	0.0	48	48	307	38.0	4;	%DE1 15 onwind
	24	0.0	0.0	0.0	-0.0	1.0	100.0	1	25.298516478036557	0.0	3.5	4	4	4	26.0	5;	%DE1 15 ror
	24	0.0	0.0	0.0	-0.0	1.0	100.0	1	0.0	0.0	0.0	53	53	417	28.0	6;	%DE1 15 solar
	25	0.0	0.0	0.0	-0.0	1.0	100.0	1	78.4	78.4	5.0	1	1	20	224.0	0;	%DE1 16 CCGT
	25	0.0	0.0	0.0	-0.0	1.0	100.0	1	224.0	78.4	2.8	0	0	20	224.0	1;	%DE1 16 OCGT
	25	0.0	0.0	0.0	-0.0	1.0	100.0	1	9.967404615384615	2.0436	2.8	13	13	13	10.0	8;	%DE1 16 biomass
	25	0.0	0.0	0.0	-0.0	1.0	100.0	1	6.709172103291233	0.0	0.0	29	29	115	38.0	4;	%DE1 16 onwind
	25	0.0	0.0	0.0	-0.0	1.0	100.0	1	14.997157970259375	0.0	3.5	2	2	2	26.0	5;	%DE1 16 ror
	25	0.0	0.0	0.0	-0.0	1.0	100.0	1	0.0	0.0	0.0	34	34	156	28.0	6;	%DE1 16 solar
	26	0.0	0.0	0.0	-0.0	1.0	100.0	1	176.9	78.4	5.0	2	2	34	224.0	0;	%DE1 17 CCGT
	26	0.0	0.0	0.0	-0.0	1.0	100.0	1	224.0	78.4	2.8	0	0	34	224.0	1;	%DE1 17 OCGT
	26	0.0	0.0	0.0	-0.0	1.0	100.0	1	9.906166666666667	2.0436	2.8	21	21	21	10.0	8;	%DE1 17 biomass
	26	0.0	0.0	0.0	-0.0	1.0	100.0	1	110.0	110.0	3.0	1	1	1	275.0	7;	%DE1 17 lignite
	26	0.0	0.0	0.0	-0.0	1.0	100.0	1	8.092813561738726	0.0	0.0	43	43	197	38.0	4;	%DE1 17 onwind
	26	0.0	0.0	0.0	-0.0	1.0	100.0	1	8.151305860527948	0.0	3.5	1	1	1	26.0	5;	%DE1 17 ror
	26	0.0	0.0	0.0	-0.0	1.0	100.0	1	0.0	0.0	0.0	55	55	267	28.0	6;	%DE1 17 solar
	27	0.0	0.0	0.0	-0.0	1.0	100.0	1	78.4	78.4	5.0	1	1	19	224.0	0;	%DE1 18 CCGT
	27	0.0	0.0	0.0	-0.0	1.0	100.0	1	224.0	78.4	2.8	0	0	19	224.0	1;	%DE1 18 OCGT
	27	0.0	0.0	0.0	-0.0	1.0	100.0	1	9.92174923076923	2.0436	2.8	13	13	13	10.0	8;	%DE1 18 biomass
	27	0.0	0.0	0.0	-0.0	1.0	100.0	1	1.1744369603981166	0.0	0.0	13	13	108	38.0	4;	%DE1 18 onwind
	27	0.0	0.0	0.0	-0.0	1.0	100.0	1	23.626054226668796	0.0	3.5	19	19	19	26.0	5;	%DE1 18 ror
	27	0.0	0.0	0.0	-0.0	1.0	100.0	1	0.0	0.0	0.0	32	32	147	28.0	6;	%DE1 18 solar
	28	0.0	0.0	0.0	-0.0	1.0	100.0	1	170.7	78.4	5.0	1	1	26	224.0	0;	%DE1 19 CCGT
	28	0.0	0.0	0.0	-0.0	1.0	100.0	1	224.0	78.4	2.8	0	0	26	224.0	1;	%DE1 19 OCGT
	28	0.0	0.0	0.0	-0.0	1.0	100.0	1	9.65496888888889	2.0436	2.8	27	27	27	10.0	8;	%DE1 19 biomass
	28	0.0	0.0	0.0	-0.0	1.0	100.0	1	4.336696218991338	0.0	0.0	23	23	153	38.0	4;	%DE1 19 onwind
	28	0.0	0.0	0.0	-0.0	1.0	100.0	1	22.793240089092617	0.0	3.5	8	8	8	26.0	5;	%DE1 19 ror
	28	0.0	0.0	0.0	-0.0	1.0	100.0	1	0.0	0.0	0.0	52	52	208	28.0	6;	%DE1 19 solar
	29	0.0	0.0	0.0	-0.0	1.0	100.0	1	127.0	78.4	5.0	1	1	62	224.0	0;	%DE1 2 CCGT
	29	0.0	0.0	0.0	-0.0	1.0	100.0	1	224.0	78.4	2.8	0	0	62	224.0	1;	%DE1 2 OCGT
	29	0.0	0.0	0.0	-0.0	1.0	100.0	1	9.838286904761905	2.0436	2.8	42	42	42	10.0	8;	%DE1 2 biomass
	29	0.0	0.0	0.0	-0.0	1.0	100.0	1	228.17939674938563	89.375	3.0	2	2	2	275.0	9;	%DE1 2 coal
	29	0.0	0.0	0.0	-0.0	1.0	100.0	1	11.422251071057053	0.0	0.0	8	8	810	17.0	2;	%DE1 2 offwind
	29	0.0	0.0	0.0	-0.0	1.0	100.0	1	12.45104196099938	0.0	0.0	89	89	363	38.0	4;	%DE1 2 onwind
	29	0.0	0.0	0.0	-0.0	1.0	100.0	1	0.11000115868030481	0.0	3.5	1	1	1	26.0	5;	%DE1 2 ror
	29	0.0	0.0	0.0	-0.0	1.0	100.0	1	0.0	0.0	0.0	86	86	492	28.0	6;	%DE1 2 solar
	30	0.0	0.0	0.0	-0.0	1.0	100.0	1	203.95499999999998	78.4	5.0	2	2	59	224.0	0;	%DE1 20 CCGT
	30	0.0	0.0	0.0	-0.0	1.0	100.0	1	224.0	78.4	2.8	0	0	59	224.0	1;	%DE1 20 OCGT
	30	0.0	0.0	0.0	-0.0	1.0	100.0	1	9.855548571428573	2.0436	2.8	35	35	35	10.0	8;	%DE1 20 biomass
	30	0.0	0.0	0.0	-0.0	1.0	100.0	1	174.24608479043997	89.375	3.0	2	2	2	275.0	9;	%DE1 20 coal
	30	0.0	0.0	0.0	-0.0	1.0	100.0	1	8.129076067800627	0.0	0.0	72	72	345	38.0	4;	%DE1 20 onwind
	30	0.0	0.0	0.0	-0.0	1.0	100.0	1	22.921941444748573	0.0	3.5	2	2	2	26.0	5;	%DE1 20 ror
	30	0.0	0.0	0.0	-0.0	1.0	100.0	1	0.0	0.0	0.0	96	96	468	28.0	6;	%DE1 20 solar
	31	0.0	0.0	0.0	-0.0	1.0	100.0	1	164.84	78.4	5.0	3	3	107	224.0	0;	%DE1 21 CCGT
	31	0.0	0.0	0.0	-0.0	1.0	100.0	1	224.0	78.4	2.8	0	0	107	224.0	1;	%DE1 21 OCGT
	31	0.0	0.0	0.0	-0.0	1.0	100.0	1	9.934234782608694	2.0436	2.8	23	23	23	10.0	8;	%DE1 21 biomass
	31	0.0	0.0	0.0	-0.0	1.0	100.0	1	272.6583187556654	110.0	3.0	25	25	25	275.0	7;	%DE1 21 lignite
	31	0.0	0.0	0.0	-0.0	1.0	100.0	1	9.548103541816705	0.0	0.0	61	61	629	38.0	4;	%DE1 21 onwind
	31	0.0	0.0	0.0	-0.0	1.0	100.0	1	19.77920834125226	0.0	3.5	2	2	2	26.0	5;	%DE1 21 ror
	31	0.0	0.0	0.0	-0.0	1.0	100.0	1	0.0	0.0	0.0	74	74	853	28.0	6;	%DE1 21 solar
	32	0.0	0.0	0.0	-0.0	1.0	100.0	1	219.24333333333334	78.4	5.0	6	6	20	224.0	0;	%DE1 22 CCGT
	32	0.0	0.0	0.0	-0.0	1.0	100.0	1	224.0	78.4	2.8	0	0	20	224.0	1;	%DE1 22 OCGT
	32	0.0	0.0	0.0	-0.0	1.0	100.0	1	9.921282	2.0436	2.8	10	10	10	10.0	8;	%DE1 22 biomass
	32	0.0	0.0	0.0	-0.0	1.0	100.0	1	5.7161365248300395	0.0	0.0	5	5	115	38.0	4;	%DE1 22 onwind
	32	0.0	0.0	0.0	-0.0	1.0	100.0	1	0.7030074050204935	0.0	3.5	1	1	1	26.0	5;	%DE1 22 ror
...
];

%% generator cost data
%	2	startup	shutdown	n	c(n-1)	...	c0	investment
mpc.gencost = [
	2	251315.25517241386	100526.10206896554	3	0.0	1282.2206896551727	0.0	0.0	83563.12499257796;	%AL1 0 CCGT
	2	346195.75609756104	138478.3024390244	3	0.0	1766.3048780487807	0.0	0.0	38053.13968947323;	%AL1 0 OCGT
	2	0.0	0.0	3	0.0	0.495	0.0	0.0	11844.49963021716;	%AL1 0 offwind
	2	0.0	0.0	3	0.0	4912.285714285715	0.0	0.0	7133.200025232385;	%AL1 0 oil
	2	0.0	0.0	3	0.0	0.495	0.0	0.0	13754.760682310241;	%AL1 0 onwind
	2	0.0	0.0	3	0.0	0.0	0.0	0.0	29299.350797862895;	%AL1 0 ror
	2	0.0	0.0	3	0.0	0.32999999999999996	0.0	0.0	3755.28696681225;	%AL1 0 solar
	2	250272.27180295766	100108.90872118306	3	0.0	1276.8993459334574	0.0	0.0	83563.12499257796;	%AT1 0 CCGT
	2	346195.75609756104	138478.3024390244	3	0.0	1766.3048780487804	0.0	0.0	38053.139689473224;	%AT1 0 OCGT
	2	0.0	0.0	3	0.0	0.495	0.0	0.0	13754.760682310241;	%AT1 0 onwind
	2	0.0	0.0	3	0.0	0.0	0.0	0.0	29299.350797862895;	%AT1 0 ror
	2	0.0	0.0	3	0.0	0.33	0.0	0.0	3755.2869668122503;	%AT1 0 solar
	2	251315.25517241386	100526.10206896554	3	0.0	1282.2206896551727	0.0	0.0	83563.12499257796;	%AT1 1 CCGT
	2	346195.75609756104	138478.3024390244	3	0.0	1766.3048780487807	0.0	0.0	38053.13968947323;	%AT1 1 OCGT
	2	0.0	0.0	3	0.0	0.49499999999999994	0.0	0.0	13754.760682310241;	%AT1 1 onwind
	2	0.0	0.0	3	0.0	0.0	0.0	0.0	29299.350797862895;	%AT1 1 ror
	2	0.0	0.0	3	0.0	0.33	0.0	0.0	3755.28696681225;	%AT1 1 solar
	2	251315.25517241386	100526.10206896554	3	0.0	1282.2206896551727	0.0	0.0	83563.12499257796;	%AT1 2 CCGT
	2	346195.75609756104	138478.3024390244	3	0.0	1766.3048780487807	0.0	0.0	38053.13968947323;	%AT1 2 OCGT
	2	0.0	0.0	3	0.0	0.4949999999999999	0.0	0.0	13754.76068231024;	%AT1 2 onwind
	2	0.0	0.0	3	0.0	0.0	0.0	0.0	29299.350797862895;	%AT1 2 ror
	2	0.0	0.0	3	0.0	0.33	0.0	0.0	3755.2869668122503;	%AT1 2 solar
	2	248860.23307364975	99544.0932294599	3	0.0	1269.6950667022945	0.0	0.0	83563.12499257796;	%AT1 3 CCGT
	2	346195.75609756104	138478.3024390244	3	0.0	1766.3048780487807	0.0	0.0	38053.13968947323;	%AT1 3 OCGT
	2	0.0	0.0	3	0.0	0.495	0.0	0.0	13754.760682310241;	%AT1 3 onwind
	2	0.0	0.0	3	0.0	0.0	0.0	0.0	29299.350797862895;	%AT1 3 ror
	2	0.0	0.0	3	0.0	0.33	0.0	0.0	3755.2869668122503;	%AT1 3 solar
	2	251315.25517241386	100526.10206896554	3	0.0	1282.2206896551727	0.0	0.0	83563.12499257796;	%BA1 0 CCGT
	2	346195.75609756104	138478.3024390244	3	0.0	1766.3048780487807	0.0	0.0	38053.13968947323;	%BA1 0 OCGT
	2	111512.49999999999	44604.99999999999	3	0.0	405.5	0.0	0.0	362561.3269624377;	%BA1 0 lignite
	2	0.0	0.0	3	0.0	0.495	0.0	0.0	13754.760682310241;	%BA1 0 onwind
	2	0.0	0.0	3	0.0	0.33000000000000007	0.0	0.0	3755.2869668122507;	%BA1 0 solar
	2	302259.0577900593	120903.62311602372	3	0.0	1542.138049949282	0.0	0.0	83563.12499257794;	%BE1 0 CCGT
	2	346195.75609756104	138478.3024390244	3	0.0	1766.3048780487807	0.0	0.0	38053.13968947323;	%BE1 0 OCGT
	2	2511.0191489361705	1004.4076595744682	3	0.0	491.4893617021277	0.0	0.0	10475.73191409757;	%BE1 0 biomass
	2	0.0	0.0	3	0.0	0.49500000000000005	0.0	0.0	12283.779715820294;	%BE1 0 offwind
	2	0.0	0.0	3	0.0	0.49500000000000005	0.0	0.0	13754.760682310243;	%BE1 0 onwind
	2	0.0	0.0	3	0.0	0.33	0.0	0.0	3755.2869668122503;	%BE1 0 solar
	2	251315.25517241383	100526.10206896553	3	0.0	1282.2206896551725	0.0	0.0	83563.12499257794;	%BE1 1 CCGT
	2	346195.75609756104	138478.3024390244	3	0.0	1766.3048780487804	0.0	0.0	38053.139689473224;	%BE1 1 OCGT
	2	0.0	0.0	3	0.0	0.49499999999999994	0.0	0.0	13754.760682310241;	%BE1 1 onwind
	2	0.0	0.0	3	0.0	0.0	0.0	0.0	29299.350797862895;	%BE1 1 ror
	2	0.0	0.0	3	0.0	0.33	0.0	0.0	3755.2869668122503;	%BE1 1 solar
	2	251315.25517241386	100526.10206896554	3	0.0	1282.2206896551727	0.0	0.0	83563.12499257794;	%BG1 0 CCGT
	2	346195.75609756104	138478.3024390244	3	0.0	1766.3048780487804	0.0	0.0	38053.13968947323;	%BG1 0 OCGT
	2	207908.59374999997	83163.4375	3	0.0	930.5	0.0	0.0	362561.3269624377;	%BG1 0 coal
	2	111512.49999999997	44604.999999999985	3	0.0	405.49999999999994	0.0	0.0	362561.32696243766;	%BG1 0 lignite
	2	469375.0	187750.0	3	0.0	375.5	0.0	0.0	2662499.5837186812;	%BG1 0 nuclear
	2	0.0	0.0	3	0.0	0.495	0.0	0.0	12478.343894514486;	%BG1 0 offwind
	2	0.0	0.0	3	0.0	0.49499999999999994	0.0	0.0	13754.760682310241;	%BG1 0 onwind
	2	0.0	0.0	3	0.0	0.0	0.0	0.0	29299.350797862895;	%BG1 0 ror
	2	0.0	0.0	3	0.0	0.32999999999999996	0.0	0.0	3755.2869668122503;	%BG1 0 solar
	2	251315.25517241386	100526.10206896554	3	0.0	1282.2206896551727	0.0	0.0	83563.12499257796;	%CH1 0 CCGT
	2	346195.75609756104	138478.3024390244	3	0.0	1766.3048780487807	0.0	0.0	38053.13968947323;	%CH1 0 OCGT
	2	2511.0191489361705	1004.4076595744681	3	0.0	491.48936170212767	0.0	0.0	10475.73191409757;	%CH1 0 biomass
	2	0.0	0.0	3	0.0	0.495	0.0	0.0	13754.760682310241;	%CH1 0 onwind
	2	0.0	0.0	3	0.0	0.0	0.0	0.0	29299.350797862895;	%CH1 0 ror
	2	0.0	0.0	3	0.0	0.33	0.0	0.0	3755.2869668122503;	%CH1 0 solar
	2	251315.25517241383	100526.10206896553	3	0.0	1282.2206896551725	0.0	0.0	83563.12499257794;	%CH1 1 CCGT
	2	346195.75609756104	138478.3024390244	3	0.0	1766.3048780487804	0.0	0.0	38053.139689473224;	%CH1 1 OCGT
	2	2511.0191489361705	1004.4076595744682	3	0.0	491.4893617021277	0.0	0.0	10475.73191409757;	%CH1 1 biomass
	2	0.0	0.0	3	0.0	0.495	0.0	0.0	13754.760682310241;	%CH1 1 onwind
	2	0.0	0.0	3	0.0	0.0	0.0	0.0	29299.350797862895;	%CH1 1 ror
	2	0.0	0.0	3	0.0	0.33000000000000007	0.0	0.0	3755.2869668122507;	%CH1 1 solar
	2	251315.25517241386	100526.10206896554	3	0.0	1282.2206896551727	0.0	0.0	83563.12499257796;	%CH1 2 CCGT
	2	346195.75609756104	138478.3024390244	3	0.0	1766.3048780487807	0.0	0.0	38053.13968947323;	%CH1 2 OCGT
	2	2511.0191489361714	1004.4076595744684	3	0.0	491.48936170212784	0.0	0.0	10475.731914097572;	%CH1 2 biomass
	2	469375.0	187750.0	3	0.0	375.5	0.0	0.0	2662499.5837186812;	%CH1 2 nuclear
	2	0.0	0.0	3	0.0	0.49499999999999994	0.0	0.0	13754.760682310241;	%CH1 2 onwind
	2	0.0	0.0	3	0.0	0.0	0.0	0.0	29299.350797862895;	%CH1 2 ror
	2	0.0	0.0	3	0.0	0.33	0.0	0.0	3755.2869668122503;	%CH1 2 solar
	2	251315.25517241386	100526.10206896554	3	0.0	1282.2206896551727	0.0	0.0	83563.12499257796;	%CH1 3 CCGT
	2	346195.75609756104	138478.3024390244	3	0.0	1766.3048780487807	0.0	0.0	38053.13968947323;	%CH1 3 OCGT
	2	2511.0191489361705	1004.4076595744682	3	0.0	491.4893617021277	0.0	0.0	10475.73191409757;	%CH1 3 biomass
	2	0.0	0.0	3	0.0	0.49499999999999994	0.0	0.0	13754.760682310241;	%CH1 3 onwind
	2	0.0	0.0	3	0.0	0.0	0.0	0.0	29299.350797862895;	%CH1 3 ror
	2	0.0	0.0	3	0.0	0.33000000000000007	0.0	0.0	3755.2869668122503;	%CH1 3 solar
	2	251315.25517241386	100526.10206896554	3	0.0	1282.2206896551727	0.0	0.0	83563.12499257796;	%CZ1 0 CCGT
	2	346195.75609756104	138478.3024390244	3	0.0	1766.3048780487804	0.0	0.0	38053.13968947323;	%CZ1 0 OCGT
	2	0.0	0.0	3	0.0	0.495	0.0	0.0	13754.760682310241;	%CZ1 0 onwind
	2	0.0	0.0	3	0.0	0.33000000000000007	0.0	0.0	3755.2869668122507;	%CZ1 0 solar
	2	251315.25517241386	100526.10206896554	3	0.0	1282.2206896551727	0.0	0.0	83563.12499257796;	%CZ1 1 CCGT
	2	346195.75609756104	138478.3024390244	3	0.0	1766.3048780487807	0.0	0.0	38053.13968947323;	%CZ1 1 OCGT
	2	111512.49999999999	44604.99999999999	3	0.0	405.5	0.0	0.0	362561.3269624377;	%CZ1 1 lignite
	2	469375.0	187750.0	3	0.0	375.5	0.0	0.0	2662499.5837186812;	%CZ1 1 nuclear
	2	0.0	0.0	3	0.0	0.495	0.0	0.0	13754.760682310241;	%CZ1 1 onwind
	2	0.0	0.0	3	0.0	0.0	0.0	0.0	29299.350797862895;	%CZ1 1 ror
	2	0.0	0.0	3	0.0	0.33	0.0	0.0	3755.2869668122503;	%CZ1 1 solar
	2	251315.25517241386	100526.10206896554	3	0.0	1282.2206896551727	0.0	0.0	83563.12499257794;	%CZ1 2 CCGT
	2	346195.75609756104	138478.3024390244	3	0.0	1766.3048780487804	0.0	0.0	38053.139689473224;	%CZ1 2 OCGT
	2	111512.49999999999	44604.99999999999	3	0.0	405.5	0.0	0.0	362561.3269624377;	%CZ1 2 lignite
	2	469375.0	187750.0	3	0.0	375.5	0.0	0.0	2662499.5837186812;	%CZ1 2 nuclear
	2	0.0	0.0	3	0.0	0.495	0.0	0.0	13754.760682310241;	%CZ1 2 onwind
	2	0.0	0.0	3	0.0	0.33	0.0	0.0	3755.2869668122503;	%CZ1 2 solar
	2	277718.8028078944	111087.52112315777	3	0.0	1416.9326673872163	0.0	0.0	83563.12499257796;	%DE1 0 CCGT
	2	346195.75609756104	138478.3024390244	3	0.0	1766.3048780487807	0.0	0.0	38053.13968947323;	%DE1 0 OCGT
	2	2511.019148936171	1004.4076595744683	3	0.0	491.4893617021278	0.0	0.0	10475.731914097572;	%DE1 0 biomass
	2	104040.70812626212	41616.28325050485	3	0.0	378.3298477318623	0.0	0.0	362561.3269624377;	%DE1 0 lignite
	2	0.0	0.0	3	0.0	4540.105263157894	0.0	0.0	7133.200025232385;	%DE1 0 oil
	2	0.0	0.0	3	0.0	0.495	0.0	0.0	13754.760682310241;	%DE1 0 onwind
	2	0.0	0.0	3	0.0	0.0	0.0	0.0	29299.350797862895;	%DE1 0 ror
	2	0.0	0.0	3	0.0	0.33	0.0	0.0	3755.2869668122503;	%DE1 0 solar
	2	289628.48202564317	115851.39281025727	3	0.0	1477.696336865526	0.0	0.0	83563.12499257796;	%DE1 1 CCGT
	2	346195.75609756104	138478.3024390244	3	0.0	1766.3048780487807	0.0	0.0	38053.13968947323;	%DE1 1 OCGT
	2	2511.0191489361705	1004.4076595744681	3	0.0	491.48936170212767	0.0	0.0	10475.73191409757;	%DE1 1 biomass
	2	0.0	0.0	3	0.0	0.49499999999999994	0.0	0.0	13754.760682310241;	%DE1 1 onwind
	2	0.0	0.0	3	0.0	0.0	0.0	0.0	29299.350797862902;	%DE1 1 ror
	2	0.0	0.0	3	0.0	0.33	0.0	0.0	3755.2869668122503;	%DE1 1 solar
	2	290752.89674876246	116301.158699505	3	0.0	1483.4331466773594	0.0	0.0	83563.12499257796;	%DE1 10 CCGT
	2	346195.75609756104	138478.3024390244	3	0.0	1766.3048780487807	0.0	0.0	38053.13968947323;	%DE1 10 OCGT
	2	2511.0191489361705	1004.4076595744682	3	0.0	491.4893617021277	0.0	0.0	10475.73191409757;	%DE1 10 biomass
	2	0.0	0.0	3	0.0	0.495	0.0	0.0	14249.081948729201;	%DE1 10 offwind
	2	0.0	0.0	3	0.0	0.49500000000000005	0.0	0.0	13754.760682310243;	%DE1 10 onwind
	2	0.0	0.0	3	0.0	0.33000000000000007	0.0	0.0	3755.2869668122507;	%DE1 10 solar
	2	256695.9994202449	102678.39976809795	3	0.0	1309.6734664298208	0.0	0.0	83563.12499257796;	%DE1 11 CCGT
	2	346195.75609756104	138478.3024390244	3	0.0	1766.3048780487807	0.0	0.0	38053.13968947323;	%DE1 11 OCGT
	2	2511.0191489361705	1004.4076595744682	3	0.0	491.4893617021277	0.0	0.0	10475.73191409757;	%DE1 11 biomass
	2	0.0	0.0	3	0.0	0.495	0.0	0.0	13754.760682310241;	%DE1 11 onwind
	2	0.0	0.0	3	0.0	0.0	0.0	0.0	29299.35079786289;	%DE1 11 ror
	2	0.0	0.0	3	0.0	0.33	0.0	0.0	3755.2869668122503;	%DE1 11 solar
	2	399117.71309487306	159647.0852379492	3	0.0	2036.314862728944	0.0	0.0	83563.12499257796;	%DE1 12 CCGT
	2	313335.9956274596	125334.39825098384	3	0.0	1598.65303891561	0.0	0.0	38053.13968947323;	%DE1 12 OCGT
	2	2511.0191489361705	1004.4076595744682	3	0.0	491.4893617021277	0.0	0.0	10475.73191409757;	%DE1 12 biomass
	2	207908.59374999997	83163.4375	3	0.0	930.5	0.0	0.0	362561.3269624377;	%DE1 12 coal
	2	0.0	0.0	3	0.0	0.49499999999999994	0.0	0.0	13754.760682310241;	%DE1 12 onwind
	2	0.0	0.0	3	0.0	0.0	0.0	0.0	29299.350797862895;	%DE1 12 ror
	2	0.0	0.0	3	0.0	0.33	0.0	0.0	3755.2869668122503;	%DE1 12 solar
	2	284334.4413780799	113733.77655123196	3	0.0	1450.6859253983666	0.0	0.0	83563.12499257796;	%DE1 13 CCGT
	2	346195.75609756104	138478.3024390244	3	0.0	1766.3048780487804	0.0	0.0	38053.139689473224;	%DE1 13 OCGT
	2	2511.0191489361705	1004.4076595744681	3	0.0	491.48936170212767	0.0	0.0	10475.73191409757;	%DE1 13 biomass
	2	207908.59374999997	83163.4375	3	0.0	930.5	0.0	0.0	362561.3269624377;	%DE1 13 coal
	2	0.0	0.0	3	0.0	0.49499999999999994	0.0	0.0	11897.218277858325;	%DE1 13 offwind
	2	0.0	0.0	3	0.0	0.495	0.0	0.0	13754.760682310241;	%DE1 13 onwind
	2	0.0	0.0	3	0.0	0.0	0.0	0.0	29299.350797862895;	%DE1 13 ror
	2	0.0	0.0	3	0.0	0.33	0.0	0.0	3755.2869668122503;	%DE1 13 solar
	2	251315.25517241386	100526.10206896554	3	0.0	1282.2206896551727	0.0	0.0	83563.12499257796;	%DE1 14 CCGT
	2	346195.75609756104	138478.3024390244	3	0.0	1766.3048780487807	0.0	0.0	38053.13968947323;	%DE1 14 OCGT
	2	2511.0191489361705	1004.4076595744682	3	0.0	491.4893617021277	0.0	0.0	10475.73191409757;	%DE1 14 biomass
	2	0.0	0.0	3	0.0	0.495	0.0	0.0	13754.760682310241;	%DE1 14 onwind
	2	0.0	0.0	3	0.0	0.0	0.0	0.0	29299.350797862895;	%DE1 14 ror
	2	0.0	0.0	3	0.0	0.33	0.0	0.0	3755.28696681225;	%DE1 14 solar
	2	259748.70704393156	103899.48281757261	3	0.0	1325.2485053261812	0.0	0.0	83563.12499257796;	%DE1 15 CCGT
	2	346195.75609756104	138478.3024390244	3	0.0	1766.3048780487804	0.0	0.0	38053.139689473224;	%DE1 15 OCGT
	2	2511.0191489361705	1004.4076595744682	3	0.0	491.4893617021277	0.0	0.0	10475.73191409757;	%DE1 15 biomass
	2	207908.59374999997	83163.4375	3	0.0	930.5	0.0	0.0	362561.3269624377;	%DE1 15 coal
	2	0.0	0.0	3	0.0	0.495	0.0	0.0	13754.760682310241;	%DE1 15 onwind
	2	0.0	0.0	3	0.0	0.0	0.0	0.0	29299.35079786289;	%DE1 15 ror
	2	0.0	0.0	3	0.0	0.33	0.0	0.0	3755.2869668122503;	%DE1 15 solar
	2	352931.8624035283	141172.7449614113	3	0.0	1800.6727673649402	0.0	0.0	83563.12499257796;	%DE1 16 CCGT
	2	346195.75609756104	138478.3024390244	3	0.0	1766.3048780487807	0.0	0.0	38053.13968947323;	%DE1 16 OCGT
	2	2511.0191489361705	1004.4076595744682	3	0.0	491.4893617021277	0.0	0.0	10475.731914097572;	%DE1 16 biomass
	2	0.0	0.0	3	0.0	0.495	0.0	0.0	13754.760682310241;	%DE1 16 onwind
	2	0.0	0.0	3	0.0	0.0	0.0	0.0	29299.350797862902;	%DE1 16 ror
	2	0.0	0.0	3	0.0	0.33000000000000007	0.0	0.0	3755.2869668122507;	%DE1 16 solar
	2	285887.69299908134	114355.07719963255	3	0.0	1458.6106785667414	0.0	0.0	83563.12499257796;	%DE1 17 CCGT
	2	346195.75609756104	138478.3024390244	3	0.0	1766.3048780487807	0.0	0.0	38053.13968947323;	%DE1 17 OCGT
	2	2511.0191489361705	1004.4076595744681	3	0.0	491.48936170212767	0.0	0.0	10475.73191409757;	%DE1 17 biomass
	2	100440.73590814199	40176.29436325679	3	0.0	365.23903966597084	0.0	0.0	362561.3269624377;	%DE1 17 lignite
	2	0.0	0.0	3	0.0	0.49500000000000005	0.0	0.0	13754.760682310243;	%DE1 17 onwind
	2	0.0	0.0	3	0.0	0.0	0.0	0.0	29299.350797862895;	%DE1 17 ror
	2	0.0	0.0	3	0.0	0.33	0.0	0.0	3755.2869668122503;	%DE1 17 solar
	2	305762.2893403093	122304.9157361237	3	0.0	1560.0116803077	0.0	0.0	83563.12499257796;	%DE1 18 CCGT
	2	346195.75609756104	138478.3024390244	3	0.0	1766.3048780487807	0.0	0.0	38053.13968947323;	%DE1 18 OCGT
	2	2511.0191489361705	1004.4076595744682	3	0.0	491.4893617021277	0.0	0.0	10475.731914097572;	%DE1 18 biomass
	2	0.0	0.0	3	0.0	0.49500000000000005	0.0	0.0	13754.760682310241;	%DE1 18 onwind
	2	0.0	0.0	3	0.0	0.0	0.0	0.0	29299.350797862895;	%DE1 18 ror
	2	0.0	0.0	3	0.0	0.33	0.0	0.0	3755.2869668122503;	%DE1 18 solar
	2	375055.32047109026	150022.12818843612	3	0.0	1913.54755342393	0.0	0.0	83563.12499257796;	%DE1 19 CCGT
	2	346195.75609756104	138478.3024390244	3	0.0	1766.3048780487807	0.0	0.0	38053.13968947323;	%DE1 19 OCGT
	2	2511.0191489361705	1004.4076595744681	3	0.0	491.48936170212767	0.0	0.0	10475.73191409757;	%DE1 19 biomass
	2	0.0	0.0	3	0.0	0.49499999999999994	0.0	0.0	13754.760682310241;	%DE1 19 onwind
	2	0.0	0.0	3	0.0	0.0	0.0	0.0	29299.350797862902;	%DE1 19 ror
	2	0.0	0.0	3	0.0	0.33000000000000007	0.0	0.0	3755.2869668122503;	%DE1 19 solar
	2	251122.18914728684	100448.87565891475	3	0.0	1281.2356589147287	0.0	0.0	83563.12499257796;	%DE1 2 CCGT
	2	346195.75609756104	138478.3024390244	3	0.0	1766.3048780487807	0.0	0.0	38053.13968947323;	%DE1 2 OCGT
	2	2511.0191489361705	1004.4076595744682	3	0.0	491.4893617021277	0.0	0.0	10475.73191409757;	%DE1 2 biomass
	2	207908.59374999997	83163.4375	3	0.0	930.5	0.0	0.0	362561.3269624377;	%DE1 2 coal
	2	0.0	0.0	3	0.0	0.495	0.0	0.0	12030.673691092215;	%DE1 2 offwind
	2	0.0	0.0	3	0.0	0.495	0.0	0.0	13754.760682310243;	%DE1 2 onwind
	2	0.0	0.0	3	0.0	0.0	0.0	0.0	29299.350797862895;	%DE1 2 ror
	2	0.0	0.0	3	0.0	0.33	0.0	0.0	3755.2869668122503;	%DE1 2 solar
	2	270710.16347636667	108284.06539054666	3	0.0	1381.1743034508502	0.0	0.0	83563.12499257796;	%DE1 20 CCGT
	2	346195.75609756104	138478.3024390244	3	0.0	1766.3048780487804	0.0	0.0	38053.13968947323;	%DE1 20 OCGT
	2	2511.0191489361705	1004.4076595744681	3	0.0	491.48936170212767	0.0	0.0	10475.73191409757;	%DE1 20 biomass
	2	207908.59374999997	83163.4375	3	0.0	930.5	0.0	0.0	362561.32696243766;	%DE1 20 coal
	2	0.0	0.0	3	0.0	0.4949999999999999	0.0	0.0	13754.76068231024;	%DE1 20 onwind
	2	0.0	0.0	3	0.0	0.0	0.0	0.0	29299.350797862895;	%DE1 20 ror
	2	0.0	0.0	3	0.0	0.32999999999999996	0.0	0.0	3755.28696681225;	%DE1 20 solar
	2	289654.64035954763	115861.85614381905	3	0.0	1477.8297977527939	0.0	0.0	83563.12499257796;	%DE1 21 CCGT
	2	346195.75609756104	138478.3024390244	3	0.0	1766.3048780487804	0.0	0.0	38053.139689473224;	%DE1 21 OCGT
	2	2511.0191489361705	1004.4076595744682	3	0.0	491.4893617021277	0.0	0.0	10475.731914097572;	%DE1 21 biomass
	2	98871.065667822	39548.4262671288	3	0.0	359.5311478829891	0.0	0.0	362561.32696243766;	%DE1 21 lignite
	2	0.0	0.0	3	0.0	0.495	0.0	0.0	13754.760682310241;	%DE1 21 onwind
	2	0.0	0.0	3	0.0	0.0	0.0	0.0	29299.350797862902;	%DE1 21 ror
	2	0.0	0.0	3	0.0	0.33	0.0	0.0	3755.2869668122503;	%DE1 21 solar
	2	271125.5256147367	108450.2102458947	3	0.0	1383.2934980343712	0.0	0.0	83563.12499257796;	%DE1 22 CCGT
	2	346195.75609756104	138478.3024390244	3	0.0	1766.3048780487804	0.0	0.0	38053.139689473224;	%DE1 22 OCGT
	2	2511.0191489361705	1004.4076595744682	3	0.0	491.4893617021277	0.0	0.0	10475.73191409757;	%DE1 22 biomass
	2	0.0	0.0	3	0.0	0.495	0.0	0.0	13754.760682310241;	%DE1 22 onwind
	2	0.0	0.0	3	0.0	0.0	0.0	0.0	29299.35079786289;	%DE1 22 ror
...
];
%% branch data
%	fbus	tbus	r	x	b	rateA	rateB	rateC	ratio	angle	status	angmin	angmax
mpc.branch = [
	1	66	0.0	0.0	0.0	1698.1026117405274	1698.1026117405274	1698.1026117405274	0	0	1	-60	60;	%AL1 0 - GR1 0
	1	75	0.0	0.0	0.0	2189.658630928575	2189.658630928575	2189.658630928575	0	0	1	-60	60;	%AL1 0 - ME1 0
	3	28	0.0	0.0	0.0	3396.205223481055	3396.205223481055	3396.205223481055	0	0	1	-60	60;	%AT1 1 - DE1 19
	32	40	0.0	0.0	0.0	11171.72770881926	11171.72770881926	11171.72770881926	0	0	1	-60	60;	%DE1 22 - DE1 3
	32	44	0.0	0.0	0.0	5094.3078352215825	5094.3078352215825	5094.3078352215825	0	0	1	-60	60;	%DE1 22 - DE1 33
	32	50	0.0	0.0	0.0	5094.3078352215825	5094.3078352215825	5094.3078352215825	0	0	1	-60	60;	%DE1 22 - DE1 8
	34	43	0.0	0.0	0.0	5362.429300233244	5362.429300233244	5362.429300233244	0	0	1	-60	60;	%DE1 24 - DE1 32
	34	48	0.0	0.0	0.0	4379.31726185715	4379.31726185715	4379.31726185715	0	0	1	-60	60;	%DE1 24 - DE1 6
	34	83	0.0	0.0	0.0	3396.205223481055	3396.205223481055	3396.205223481055	0	0	1	-60	60;	%DE1 24 - PL1 2
	35	50	0.0	0.0	0.0	10188.615670443165	10188.615670443165	10188.615670443165	0	0	1	-60	60;	%DE1 25 - DE1 8
	36	42	0.0	0.0	0.0	3396.205223481055	3396.205223481055	3396.205223481055	0	0	1	-60	60;	%DE1 26 - DE1 31
	36	50	0.0	0.0	0.0	7775.522485338204	7775.522485338204	7775.522485338204	0	0	1	-60	60;	%DE1 26 - DE1 8
	37	52	0.0	0.0	0.0	4379.31726185715	4379.31726185715	4379.31726185715	0	0	1	-60	60;	%DE1 27 - DK1 0
	3	33	0.0	0.0	0.0	10188.615670443165	10188.615670443165	10188.615670443165	0	0	1	-60	60;	%AT1 1 - DE1 23
	38	77	0.0	0.0	0.0	3396.205223481055	3396.205223481055	3396.205223481055	0	0	1	-60	60;	%DE1 28 - NL1 0
	39	49	0.0	0.0	0.0	6077.419873597677	6077.419873597677	6077.419873597677	0	0	1	-60	60;	%DE1 29 - DE1 7
	42	47	0.0	0.0	0.0	3396.205223481055	3396.205223481055	3396.205223481055	0	0	1	-60	60;	%DE1 31 - DE1 5
	42	50	0.0	0.0	0.0	5094.3078352215825	5094.3078352215825	5094.3078352215825	0	0	1	-60	60;	%DE1 31 - DE1 8
	43	51	0.0	0.0	0.0	4379.31726185715	4379.31726185715	4379.31726185715	0	0	1	-60	60;	%DE1 32 - DE1 9
	44	62	0.0	0.0	0.0	3887.761242669102	3887.761242669102	3887.761242669102	0	0	1	-60	60;	%DE1 33 - FR1 4
	45	49	0.0	0.0	0.0	4379.31726185715	4379.31726185715	4379.31726185715	0	0	1	-60	60;	%DE1 34 - DE1 7
	46	51	0.0	0.0	0.0	983.1120383760948	983.1120383760948	983.1120383760948	0	0	1	-60	60;	%DE1 4 - DE1 9
	48	51	0.0	0.0	0.0	10188.615670443165	10188.615670443165	10188.615670443165	0	0	1	-60	60;	%DE1 6 - DE1 9
	53	88	0.0	0.0	0.0	3396.205223481055	3396.205223481055	3396.205223481055	0	0	1	-60	60;	%DK2 0 - SE2 0
	4	5	0.0	0.0	0.0	6345.541338609339	6345.541338609339	6345.541338609339	0	0	1	-60	60;	%AT1 2 - AT1 3
	54	74	0.0	0.0	0.0	3016.3664813811993	3016.3664813811993	3016.3664813811993	0	0	1	-60	60;	%EE6 0 - LV6 0
	55	58	0.0	0.0	0.0	4379.31726185715	4379.31726185715	4379.31726185715	0	0	1	-60	60;	%ES1 0 - FR1 0
	55	85	0.0	0.0	0.0	15059.488951488362	15059.488951488362	15059.488951488362	0	0	1	-60	60;	%ES1 0 - PT1 0
	57	88	0.0	0.0	0.0	3396.205223481055	3396.205223481055	3396.205223481055	0	0	1	-60	60;	%FI2 0 - SE2 0
	58	59	0.0	0.0	0.0	14344.49837812393	14344.49837812393	14344.49837812393	0	0	1	-60	60;	%FR1 0 - FR1 1
	58	60	0.0	0.0	0.0	10724.858600466488	10724.858600466488	10724.858600466488	0	0	1	-60	60;	%FR1 0 - FR1 2
	58	61	0.0	0.0	0.0	13137.951785571448	13137.951785571448	13137.951785571448	0	0	1	-60	60;	%FR1 0 - FR1 3
	59	61	0.0	0.0	0.0	9250.190542902346	9250.190542902346	9250.190542902346	0	0	1	-60	60;	%FR1 1 - FR1 3
	59	62	0.0	0.0	0.0	23103.132901838228	23103.132901838228	23103.132901838228	0	0	1	-60	60;	%FR1 1 - FR1 4
	60	62	0.0	0.0	0.0	13852.942358935881	13852.942358935881	13852.942358935881	0	0	1	-60	60;	%FR1 2 - FR1 4
	4	39	0.0	0.0	0.0	2457.780095940237	2457.780095940237	2457.780095940237	0	0	1	-60	60;	%AT1 2 - DE1 29
	60	70	0.0	0.0	0.0	5585.86385440963	5585.86385440963	5585.86385440963	0	0	1	-60	60;	%FR1 2 - IT1 0
	63	64	0.0	0.0	0.0	45022.06266654161	45022.06266654161	45022.06266654161	0	0	1	-60	60;	%GB0 0 - GB0 1
	65	69	0.0	0.0	0.0	983.1120383760948	983.1120383760948	983.1120383760948	0	0	1	-60	60;	%GB5 0 - IE5 0
	66	76	0.0	0.0	0.0	3396.205223481055	3396.205223481055	3396.205223481055	0	0	1	-60	60;	%GR1 0 - MK1 0
	67	68	0.0	0.0	0.0	6792.41044696211	6792.41044696211	6792.41044696211	0	0	1	-60	60;	%HR1 0 - HU1 0
	67	87	0.0	0.0	0.0	1698.1026117405274	1698.1026117405274	1698.1026117405274	0	0	1	-60	60;	%HR1 0 - RS1 0
	67	89	0.0	0.0	0.0	6077.419873597677	6077.419873597677	6077.419873597677	0	0	1	-60	60;	%HR1 0 - SI1 0
	68	86	0.0	0.0	0.0	3396.205223481055	3396.205223481055	3396.205223481055	0	0	1	-60	60;	%HU1 0 - RO1 0
	68	87	0.0	0.0	0.0	1698.1026117405274	1698.1026117405274	1698.1026117405274	0	0	1	-60	60;	%HU1 0 - RS1 0
	68	90	0.0	0.0	0.0	3396.205223481055	3396.205223481055	3396.205223481055	0	0	1	-60	60;	%HU1 0 - SK1 0
	4	70	0.0	0.0	0.0	491.5560191880474	491.5560191880474	491.5560191880474	0	0	1	-60	60;	%AT1 2 - IT1 0
	70	89	0.0	0.0	0.0	2189.658630928575	2189.658630928575	2189.658630928575	0	0	1	-60	60;	%IT1 0 - SI1 0
	72	74	0.0	0.0	0.0	4021.8219751749325	4021.8219751749325	4021.8219751749325	0	0	1	-60	60;	%LT6 0 - LV6 0
	75	87	0.0	0.0	0.0	2681.214650116622	2681.214650116622	2681.214650116622	0	0	1	-60	60;	%ME1 0 - RS1 0
	76	87	0.0	0.0	0.0	3396.205223481055	3396.205223481055	3396.205223481055	0	0	1	-60	60;	%MK1 0 - RS1 0
	77	78	0.0	0.0	0.0	8490.513058702638	8490.513058702638	8490.513058702638	0	0	1	-60	60;	%NL1 0 - NL1 1
	77	79	0.0	0.0	0.0	5362.429300233244	5362.429300233244	5362.429300233244	0	0	1	-60	60;	%NL1 0 - NL1 2
	80	88	0.0	0.0	0.0	7283.966466150157	7283.966466150157	7283.966466150157	0	0	1	-60	60;	%NO2 0 - SE2 0
	81	82	0.0	0.0	0.0	7775.522485338204	7775.522485338204	7775.522485338204	0	0	1	-60	60;	%PL1 0 - PL1 1
	81	84	0.0	0.0	0.0	11931.405193018969	11931.405193018969	11931.405193018969	0	0	1	-60	60;	%PL1 0 - PL1 3
	81	90	0.0	0.0	0.0	3396.205223481055	3396.205223481055	3396.205223481055	0	0	1	-60	60;	%PL1 0 - SK1 0
	5	89	0.0	0.0	0.0	491.5560191880474	491.5560191880474	491.5560191880474	0	0	1	-60	60;	%AT1 3 - SI1 0
	82	83	0.0	0.0	0.0	16266.03554404084	16266.03554404084	16266.03554404084	0	0	1	-60	60;	%PL1 1 - PL1 2
	82	84	0.0	0.0	0.0	4379.31726185715	4379.31726185715	4379.31726185715	0	0	1	-60	60;	%PL1 1 - PL1 3
	83	84	0.0	0.0	0.0	8982.069077890685	8982.069077890685	8982.069077890685	0	0	1	-60	60;	%PL1 2 - PL1 3
	86	87	0.0	0.0	0.0	5094.3078352215825	5094.3078352215825	5094.3078352215825	0	0	1	-60	60;	%RO1 0 - RS1 0
	6	67	0.0	0.0	0.0	5362.429300233244	5362.429300233244	5362.429300233244	0	0	1	-60	60;	%BA1 0 - HR1 0
	6	75	0.0	0.0	0.0	2681.214650116622	2681.214650116622	2681.214650116622	0	0	1	-60	60;	%BA1 0 - ME1 0
	6	87	0.0	0.0	0.0	2189.658630928575	2189.658630928575	2189.658630928575	0	0	1	-60	60;	%BA1 0 - RS1 0
	7	8	0.0	0.0	0.0	6792.41044696211	6792.41044696211	6792.41044696211	0	0	1	-60	60;	%BE1 0 - BE1 1
	1	76	0.0	0.0	0.0	1698.1026117405274	1698.1026117405274	1698.1026117405274	0	0	1	-60	60;	%AL1 0 - MK1 0
	7	59	0.0	0.0	0.0	6792.41044696211	6792.41044696211	6792.41044696211	0	0	1	-60	60;	%BE1 0 - FR1 1
	7	78	0.0	0.0	0.0	3396.205223481055	3396.205223481055	3396.205223481055	0	0	1	-60	60;	%BE1 0 - NL1 1
	8	62	0.0	0.0	0.0	2681.214650116622	2681.214650116622	2681.214650116622	0	0	1	-60	60;	%BE1 1 - FR1 4
	8	73	0.0	0.0	0.0	983.1120383760948	983.1120383760948	983.1120383760948	0	0	1	-60	60;	%BE1 1 - LU1 0
	8	77	0.0	0.0	0.0	3396.205223481055	3396.205223481055	3396.205223481055	0	0	1	-60	60;	%BE1 1 - NL1 0
	9	66	0.0	0.0	0.0	1698.1026117405274	1698.1026117405274	1698.1026117405274	0	0	1	-60	60;	%BG1 0 - GR1 0
	9	76	0.0	0.0	0.0	1698.1026117405274	1698.1026117405274	1698.1026117405274	0	0	1	-60	60;	%BG1 0 - MK1 0
	9	86	0.0	0.0	0.0	6792.41044696211	6792.41044696211	6792.41044696211	0	0	1	-60	60;	%BG1 0 - RO1 0
	9	87	0.0	0.0	0.0	1698.1026117405274	1698.1026117405274	1698.1026117405274	0	0	1	-60	60;	%BG1 0 - RS1 0
	10	11	0.0	0.0	0.0	1966.2240767521896	1966.2240767521896	1966.2240767521896	0	0	1	-60	60;	%CH1 0 - CH1 1
	1	87	0.0	0.0	0.0	2189.658630928575	2189.658630928575	2189.658630928575	0	0	1	-60	60;	%AL1 0 - RS1 0
	10	12	0.0	0.0	0.0	5362.429300233244	5362.429300233244	5362.429300233244	0	0	1	-60	60;	%CH1 0 - CH1 2
	10	60	0.0	0.0	0.0	6345.541338609339	6345.541338609339	6345.541338609339	0	0	1	-60	60;	%CH1 0 - FR1 2
	10	70	0.0	0.0	0.0	983.1120383760948	983.1120383760948	983.1120383760948	0	0	1	-60	60;	%CH1 0 - IT1 0
	11	12	0.0	0.0	0.0	4379.31726185715	4379.31726185715	4379.31726185715	0	0	1	-60	60;	%CH1 1 - CH1 2
	11	13	0.0	0.0	0.0	8490.513058702638	8490.513058702638	8490.513058702638	0	0	1	-60	60;	%CH1 1 - CH1 3
	11	70	0.0	0.0	0.0	3887.761242669102	3887.761242669102	3887.761242669102	0	0	1	-60	60;	%CH1 1 - IT1 0
	12	13	0.0	0.0	0.0	13852.942358935883	13852.942358935883	13852.942358935883	0	0	1	-60	60;	%CH1 2 - CH1 3
	12	27	0.0	0.0	0.0	27169.64178784844	27169.64178784844	27169.64178784844	0	0	1	-60	60;	%CH1 2 - DE1 18
	12	62	0.0	0.0	0.0	3396.205223481055	3396.205223481055	3396.205223481055	0	0	1	-60	60;	%CH1 2 - FR1 4
	13	70	0.0	0.0	0.0	3396.205223481055	3396.205223481055	3396.205223481055	0	0	1	-60	60;	%CH1 3 - IT1 0
	2	5	0.0	0.0	0.0	8758.6345237143	8758.6345237143	8758.6345237143	0	0	1	-60	60;	%AT1 0 - AT1 3
	14	16	0.0	0.0	0.0	9473.625097078731	9473.625097078731	9473.625097078731	0	0	1	-60	60;	%CZ1 0 - CZ1 2
	14	84	0.0	0.0	0.0	4379.31726185715	4379.31726185715	4379.31726185715	0	0	1	-60	60;	%CZ1 0 - PL1 3
	14	90	0.0	0.0	0.0	2189.658630928575	2189.658630928575	2189.658630928575	0	0	1	-60	60;	%CZ1 0 - SK1 0
	15	16	0.0	0.0	0.0	12154.839747195354	12154.839747195354	12154.839747195354	0	0	1	-60	60;	%CZ1 1 - CZ1 2
	15	25	0.0	0.0	0.0	3396.205223481055	3396.205223481055	3396.205223481055	0	0	1	-60	60;	%CZ1 1 - DE1 16
	15	46	0.0	0.0	0.0	3396.205223481055	3396.205223481055	3396.205223481055	0	0	1	-60	60;	%CZ1 1 - DE1 4
	16	90	0.0	0.0	0.0	3887.761242669102	3887.761242669102	3887.761242669102	0	0	1	-60	60;	%CZ1 2 - SK1 0
	17	23	0.0	0.0	0.0	3396.205223481055	3396.205223481055	3396.205223481055	0	0	1	-60	60;	%DE1 0 - DE1 14
	17	24	0.0	0.0	0.0	6077.419873597677	6077.419873597677	6077.419873597677	0	0	1	-60	60;	%DE1 0 - DE1 15
	17	35	0.0	0.0	0.0	12869.830320559786	12869.830320559786	12869.830320559786	0	0	1	-60	60;	%DE1 0 - DE1 25
	2	16	0.0	0.0	0.0	4379.31726185715	4379.31726185715	4379.31726185715	0	0	1	-60	60;	%AT1 0 - CZ1 2
	17	38	0.0	0.0	0.0	11886.718282183692	11886.718282183692	11886.718282183692	0	0	1	-60	60;	%DE1 0 - DE1 28
	17	77	0.0	0.0	0.0	3396.205223481055	3396.205223481055	3396.205223481055	0	0	1	-60	60;	%DE1 0 - NL1 0
	18	25	0.0	0.0	0.0	983.1120383760948	983.1120383760948	983.1120383760948	0	0	1	-60	60;	%DE1 1 - DE1 16
	18	36	0.0	0.0	0.0	9473.625097078733	9473.625097078733	9473.625097078733	0	0	1	-60	60;	%DE1 1 - DE1 26
	18	41	0.0	0.0	0.0	5094.3078352215825	5094.3078352215825	5094.3078352215825	0	0	1	-60	60;	%DE1 1 - DE1 30
	18	45	0.0	0.0	0.0	6077.419873597677	6077.419873597677	6077.419873597677	0	0	1	-60	60;	%DE1 1 - DE1 34
	19	22	0.0	0.0	0.0	6792.41044696211	6792.41044696211	6792.41044696211	0	0	1	-60	60;	%DE1 10 - DE1 13
	19	24	0.0	0.0	0.0	5094.3078352215825	5094.3078352215825	5094.3078352215825	0	0	1	-60	60;	%DE1 10 - DE1 15
	19	38	0.0	0.0	0.0	8490.513058702638	8490.513058702638	8490.513058702638	0	0	1	-60	60;	%DE1 10 - DE1 28
	19	47	0.0	0.0	0.0	6792.41044696211	6792.41044696211	6792.41044696211	0	0	1	-60	60;	%DE1 10 - DE1 5
	2	68	0.0	0.0	0.0	4379.31726185715	4379.31726185715	4379.31726185715	0	0	1	-60	60;	%AT1 0 - HU1 0
	19	77	0.0	0.0	0.0	3396.205223481055	3396.205223481055	3396.205223481055	0	0	1	-60	60;	%DE1 10 - NL1 0
	19	79	0.0	0.0	0.0	3396.205223481055	3396.205223481055	3396.205223481055	0	0	1	-60	60;	%DE1 10 - NL1 2
	20	26	0.0	0.0	0.0	3396.205223481055	3396.205223481055	3396.205223481055	0	0	1	-60	60;	%DE1 11 - DE1 17
	20	42	0.0	0.0	0.0	3396.205223481055	3396.205223481055	3396.205223481055	0	0	1	-60	60;	%DE1 11 - DE1 31
	21	27	0.0	0.0	0.0	3396.205223481055	3396.205223481055	3396.205223481055	0	0	1	-60	60;	%DE1 12 - DE1 18
	21	32	0.0	0.0	0.0	6792.41044696211	6792.41044696211	6792.41044696211	0	0	1	-60	60;	%DE1 12 - DE1 22
	21	33	0.0	0.0	0.0	10188.615670443165	10188.615670443165	10188.615670443165	0	0	1	-60	60;	%DE1 12 - DE1 23
	21	36	0.0	0.0	0.0	3396.205223481055	3396.205223481055	3396.205223481055	0	0	1	-60	60;	%DE1 12 - DE1 26
	21	40	0.0	0.0	0.0	5094.3078352215825	5094.3078352215825	5094.3078352215825	0	0	1	-60	60;	%DE1 12 - DE1 3
	22	29	0.0	0.0	0.0	10188.615670443165	10188.615670443165	10188.615670443165	0	0	1	-60	60;	%DE1 13 - DE1 2
	2	89	0.0	0.0	0.0	3396.205223481055	3396.205223481055	3396.205223481055	0	0	1	-60	60;	%AT1 0 - SI1 0
	22	37	0.0	0.0	0.0	983.1120383760948	983.1120383760948	983.1120383760948	0	0	1	-60	60;	%DE1 13 - DE1 27
	22	47	0.0	0.0	0.0	11171.727708819259	11171.727708819259	11171.727708819259	0	0	1	-60	60;	%DE1 13 - DE1 5
	23	35	0.0	0.0	0.0	1474.6680575641421	1474.6680575641421	1474.6680575641421	0	0	1	-60	60;	%DE1 14 - DE1 25
	23	44	0.0	0.0	0.0	6077.419873597677	6077.419873597677	6077.419873597677	0	0	1	-60	60;	%DE1 14 - DE1 33
	23	73	0.0	0.0	0.0	3440.892134316332	3440.892134316332	3440.892134316332	0	0	1	-60	60;	%DE1 14 - LU1 0
	24	35	0.0	0.0	0.0	8758.6345237143	8758.6345237143	8758.6345237143	0	0	1	-60	60;	%DE1 15 - DE1 25
	24	38	0.0	0.0	0.0	11171.72770881926	11171.72770881926	11171.72770881926	0	0	1	-60	60;	%DE1 15 - DE1 28
	24	42	0.0	0.0	0.0	3396.205223481055	3396.205223481055	3396.205223481055	0	0	1	-60	60;	%DE1 15 - DE1 31
	24	47	0.0	0.0	0.0	3396.205223481055	3396.205223481055	3396.205223481055	0	0	1	-60	60;	%DE1 15 - DE1 5
	25	26	0.0	0.0	0.0	3396.205223481055	3396.205223481055	3396.205223481055	0	0	1	-60	60;	%DE1 16 - DE1 17
	3	4	0.0	0.0	0.0	983.1120383760948	983.1120383760948	983.1120383760948	0	0	1	-60	60;	%AT1 1 - AT1 2
	25	39	0.0	0.0	0.0	3396.205223481055	3396.205223481055	3396.205223481055	0	0	1	-60	60;	%DE1 16 - DE1 29
	26	41	0.0	0.0	0.0	18679.128729145803	18679.128729145803	18679.128729145803	0	0	1	-60	60;	%DE1 17 - DE1 30
	26	46	0.0	0.0	0.0	7775.522485338204	7775.522485338204	7775.522485338204	0	0	1	-60	60;	%DE1 17 - DE1 4
	26	51	0.0	0.0	0.0	4379.31726185715	4379.31726185715	4379.31726185715	0	0	1	-60	60;	%DE1 17 - DE1 9
	27	33	0.0	0.0	0.0	3396.205223481055	3396.205223481055	3396.205223481055	0	0	1	-60	60;	%DE1 18 - DE1 23
	27	40	0.0	0.0	0.0	6077.419873597677	6077.419873597677	6077.419873597677	0	0	1	-60	60;	%DE1 18 - DE1 3
	27	62	0.0	0.0	0.0	5585.86385440963	5585.86385440963	5585.86385440963	0	0	1	-60	60;	%DE1 18 - FR1 4
	28	33	0.0	0.0	0.0	7775.522485338204	7775.522485338204	7775.522485338204	0	0	1	-60	60;	%DE1 19 - DE1 23
	28	49	0.0	0.0	0.0	5094.3078352215825	5094.3078352215825	5094.3078352215825	0	0	1	-60	60;	%DE1 19 - DE1 7
	29	30	0.0	0.0	0.0	3396.205223481055	3396.205223481055	3396.205223481055	0	0	1	-60	60;	%DE1 2 - DE1 20
	3	13	0.0	0.0	0.0	6792.41044696211	6792.41044696211	6792.41044696211	0	0	1	-60	60;	%AT1 1 - CH1 3
	29	37	0.0	0.0	0.0	24756.548602743478	24756.548602743478	24756.548602743478	0	0	1	-60	60;	%DE1 2 - DE1 27
	29	43	0.0	0.0	0.0	3396.205223481055	3396.205223481055	3396.205223481055	0	0	1	-60	60;	%DE1 2 - DE1 32
	30	42	0.0	0.0	0.0	6792.41044696211	6792.41044696211	6792.41044696211	0	0	1	-60	60;	%DE1 20 - DE1 31
	30	47	0.0	0.0	0.0	983.1120383760948	983.1120383760948	983.1120383760948	0	0	1	-60	60;	%DE1 20 - DE1 5
	30	51	0.0	0.0	0.0	3396.205223481055	3396.205223481055	3396.205223481055	0	0	1	-60	60;	%DE1 20 - DE1 9
	31	46	0.0	0.0	0.0	10188.615670443165	10188.615670443165	10188.615670443165	0	0	1	-60	60;	%DE1 21 - DE1 4
	31	48	0.0	0.0	0.0	13584.82089392422	13584.82089392422	13584.82089392422	0	0	1	-60	60;	%DE1 21 - DE1 6
	31	83	0.0	0.0	0.0	3396.205223481055	3396.205223481055	3396.205223481055	0	0	1	-60	60;	%DE1 21 - PL1 2
	32	35	0.0	0.0	0.0	3396.205223481055	3396.205223481055	3396.205223481055	0	0	1	-60	60;	%DE1 22 - DE1 25
	32	36	0.0	0.0	0.0	3396.205223481055	3396.205223481055	3396.205223481055	0	0	1	-60	60;	%DE1 22 - DE1 26
];
%% dcline data
%	fbus	tbus	status	Pf	Pt	Qf	Qt	Vf	Vt	Pmin	Pmax	QminF	QmaxF	QminT	QmaxT	loss0	loss1
mpc.dcline = [
	70	66	1	0.0	0.0	0.0	0.0	1.0	1.0	-500.0	500.0	-500.0	500.0	-500.0	500.0	0.0	0.01;	%IT1 0 - GR1 0
	56	55	1	0.0	0.0	0.0	0.0	1.0	1.0	-400.0	400.0	-400.0	400.0	-400.0	400.0	0.0	0.01;	%ES4 0 - ES1 0
	70	71	1	0.0	0.0	0.0	0.0	1.0	1.0	-1000.0	1000.0	-1000.0	1000.0	-1000.0	1000.0	0.0	0.01;	%IT1 0 - IT3 0
	70	75	1	0.0	0.0	0.0	0.0	1.0	1.0	-1000.0	1000.0	-1000.0	1000.0	-1000.0	1000.0	0.0	0.01;	%IT1 0 - ME1 0
	58	55	1	0.0	0.0	0.0	0.0	1.0	1.0	-2000.0	2000.0	-2000.0	2000.0	-2000.0	2000.0	0.0	0.01;	%FR1 0 - ES1 0
	17	8	1	0.0	0.0	0.0	0.0	1.0	1.0	-1000.0	1000.0	-1000.0	1000.0	-1000.0	1000.0	0.0	0.01;	%DE1 0 - BE1 1
	63	78	1	0.0	0.0	0.0	0.0	1.0	1.0	-1000.0	1000.0	-1000.0	1000.0	-1000.0	1000.0	0.0	0.01;	%GB0 0 - NL1 1
	63	59	1	0.0	0.0	0.0	0.0	1.0	1.0	-2000.0	2000.0	-2000.0	2000.0	-2000.0	2000.0	0.0	0.01;	%GB0 0 - FR1 1
	72	88	1	0.0	0.0	0.0	0.0	1.0	1.0	-700.0	700.0	-700.0	700.0	-700.0	700.0	0.0	0.01;	%LT6 0 - SE2 0
	53	52	1	0.0	0.0	0.0	0.0	1.0	1.0	-600.0	600.0	-600.0	600.0	-600.0	600.0	0.0	0.01;	%DK2 0 - DK1 0
	53	43	1	0.0	0.0	0.0	0.0	1.0	1.0	-600.0	600.0	-600.0	600.0	-600.0	600.0	0.0	0.01;	%DK2 0 - DE1 32
	88	29	1	0.0	0.0	0.0	0.0	1.0	1.0	-600.0	600.0	-600.0	600.0	-600.0	600.0	0.0	0.01;	%SE2 0 - DE1 2
	82	88	1	0.0	0.0	0.0	0.0	1.0	1.0	-600.0	600.0	-600.0	600.0	-600.0	600.0	0.0	0.01;	%PL1 1 - SE2 0
	79	52	1	0.0	0.0	0.0	0.0	1.0	1.0	-700.0	700.0	-700.0	700.0	-700.0	700.0	0.0	0.01;	%NL1 2 - DK1 0
	79	80	1	0.0	0.0	0.0	0.0	1.0	1.0	-700.0	700.0	-700.0	700.0	-700.0	700.0	0.0	0.01;	%NL1 2 - NO2 0
	37	80	1	0.0	0.0	0.0	0.0	1.0	1.0	-1400.0	1400.0	-1400.0	1400.0	-1400.0	1400.0	0.0	0.01;	%DE1 27 - NO2 0
	64	65	1	0.0	0.0	0.0	0.0	1.0	1.0	-2501.0	2501.0	-2501.0	2501.0	-2501.0	2501.0	0.0	0.01;	%GB0 1 - GB5 0
	64	65	1	0.0	0.0	0.0	0.0	1.0	1.0	-250.0	250.0	-250.0	250.0	-250.0	250.0	0.0	0.01;	%GB0 1 - GB5 0
	64	69	1	0.0	0.0	0.0	0.0	1.0	1.0	-500.0	500.0	-500.0	500.0	-500.0	500.0	0.0	0.01;	%GB0 1 - IE5 0
	88	52	1	0.0	0.0	0.0	0.0	1.0	1.0	-250.0	250.0	-250.0	250.0	-250.0	250.0	0.0	0.01;	%SE2 0 - DK1 0
	88	52	1	0.0	0.0	0.0	0.0	1.0	1.0	-300.0	300.0	-300.0	300.0	-300.0	300.0	0.0	0.01;	%SE2 0 - DK1 0
	57	54	1	0.0	0.0	0.0	0.0	1.0	1.0	-600.0	600.0	-600.0	600.0	-600.0	600.0	0.0	0.01;	%FI2 0 - EE6 0
	57	54	1	0.0	0.0	0.0	0.0	1.0	1.0	-650.0	650.0	-650.0	650.0	-650.0	650.0	0.0	0.01;	%FI2 0 - EE6 0
	88	57	1	0.0	0.0	0.0	0.0	1.0	1.0	-800.0	800.0	-800.0	800.0	-800.0	800.0	0.0	0.01;	%SE2 0 - FI2 0
	88	57	1	0.0	0.0	0.0	0.0	1.0	1.0	-500.0	500.0	-500.0	500.0	-500.0	500.0	0.0	0.01;	%SE2 0 - FI2 0
	55	58	1	0.0	0.0	0.0	0.0	1.0	1.0	-2200.0	2200.0	-2200.0	2200.0	-2200.0	2200.0	0.0	0.01;	%ES1 0 - FR1 0
	70	60	1	0.0	0.0	0.0	0.0	1.0	1.0	-1000.0	1000.0	-1000.0	1000.0	-1000.0	1000.0	0.0	0.01;	%IT1 0 - FR1 2
	61	63	1	0.0	0.0	0.0	0.0	1.0	1.0	-1000.0	1000.0	-1000.0	1000.0	-1000.0	1000.0	0.0	0.01;	%FR1 3 - GB0 0
	63	7	1	0.0	0.0	0.0	0.0	1.0	1.0	-1000.0	1000.0	-1000.0	1000.0	-1000.0	1000.0	0.0	0.01;	%GB0 0 - BE1 0
	51	49	1	0.0	0.0	0.0	0.0	1.0	1.0	-2000.0	2000.0	-2000.0	2000.0	-2000.0	2000.0	0.0	0.01;	%DE1 9 - DE1 7
	19	38	1	0.0	0.0	0.0	0.0	1.0	1.0	-2000.0	2000.0	-2000.0	2000.0	-2000.0	2000.0	0.0	0.01;	%DE1 10 - DE1 28
	64	61	1	0.0	0.0	0.0	0.0	1.0	1.0	-1400.0	1400.0	-1400.0	1400.0	-1400.0	1400.0	0.0	0.01;	%GB0 1 - FR1 3
...